version 2
run General-0-20201115-10:36:15-6063
attr configname General
attr datetime 20201115-10:36:15
attr experiment General
attr inifile omnetpp.ini
attr iterationvars ""
attr iterationvarsf ""
attr measurement ""
attr network RSUExampleScenario
attr processid 6063
attr repetition 0
attr replication #0
attr resultdir results
attr runnumber 0
attr seedset 0
param *.playgroundSizeX 2500m
param *.playgroundSizeY 2500m
param *.playgroundSizeZ 50m
param *.annotations.draw true
param *.manager.updateInterval 1s
param *.manager.host "\"localhost\""
param *.manager.port 9999
param *.manager.autoShutdown true
param *.manager.launchConfig "xmldoc(\"my.launchd.xml\")"
param *.rsu[0].mobility.x 2000
param *.rsu[0].mobility.y 2000
param *.rsu[0].mobility.z 3
param *.rsu[*].applType "\"TraCIDemoRSU11p\""
param *.rsu[*].appl.headerLength "80 bit"
param *.rsu[*].appl.sendBeacons false
param *.rsu[*].appl.dataOnSch false
param *.rsu[*].appl.beaconInterval 1s
param *.rsu[*].appl.beaconUserPriority 7
param *.rsu[*].appl.dataUserPriority 5
param *.rsu[*].nic.phy80211p.antennaOffsetZ "0 m"
param *.connectionManager.sendDirect true
param *.connectionManager.maxInterfDist 2600m
param *.connectionManager.drawMaxIntfDist false
param *.**.nic.mac1609_4.useServiceChannel false
param *.**.nic.mac1609_4.txPower 20mW
param *.**.nic.mac1609_4.bitrate 6Mbps
param *.**.nic.phy80211p.minPowerLevel -110dBm
param *.**.nic.phy80211p.useNoiseFloor true
param *.**.nic.phy80211p.noiseFloor -98dBm
param *.**.nic.phy80211p.decider "xmldoc(\"config.xml\")"
param *.**.nic.phy80211p.analogueModels "xmldoc(\"config.xml\")"
param *.**.nic.phy80211p.usePropagationDelay true
param *.**.nic.phy80211p.antenna "xmldoc(\"antenna.xml\", \"/root/Antenna[@id='monopole']\")"
param *.node[*].nic.phy80211p.antennaOffsetY "0 m"
param *.node[*].nic.phy80211p.antennaOffsetZ "1.895 m"
param *.node[*].applType "\"TraCIDemo11p\""
param *.node[*].appl.headerLength "80 bit"
param *.node[*].appl.sendBeacons false
param *.node[*].appl.dataOnSch false
param *.node[*].appl.beaconInterval 1s
param *.node[*].veinsmobility.x 0
param *.node[*].veinsmobility.y 0
param *.node[*].veinsmobility.z 0
param *.node[*].veinsmobility.setHostSpeed false
param *.node[*0].veinsmobility.accidentCount 1
param *.node[*0].veinsmobility.accidentStart 73s
param *.node[*0].veinsmobility.accidentDuration 50s

vector 0 RSUExampleScenario.node[0].veinsmobility posx ETV
vector 1 RSUExampleScenario.node[0].veinsmobility posy ETV
vector 2 RSUExampleScenario.node[1].veinsmobility posx ETV
vector 3 RSUExampleScenario.node[1].veinsmobility posy ETV
vector 4 RSUExampleScenario.node[2].veinsmobility posx ETV
vector 5 RSUExampleScenario.node[2].veinsmobility posy ETV
vector 6 RSUExampleScenario.node[3].veinsmobility posx ETV
vector 7 RSUExampleScenario.node[3].veinsmobility posy ETV
vector 8 RSUExampleScenario.node[4].veinsmobility posx ETV
vector 9 RSUExampleScenario.node[4].veinsmobility posy ETV
vector 10 RSUExampleScenario.node[5].veinsmobility posx ETV
vector 11 RSUExampleScenario.node[5].veinsmobility posy ETV
vector 12 RSUExampleScenario.node[0].veinsmobility speed ETV
vector 13 RSUExampleScenario.node[1].veinsmobility speed ETV
vector 14 RSUExampleScenario.node[2].veinsmobility speed ETV
vector 15 RSUExampleScenario.node[3].veinsmobility speed ETV
vector 16 RSUExampleScenario.node[4].veinsmobility speed ETV
vector 17 RSUExampleScenario.node[5].veinsmobility speed ETV
vector 18 RSUExampleScenario.node[0].veinsmobility acceleration ETV
vector 19 RSUExampleScenario.node[0].veinsmobility co2emission ETV
vector 20 RSUExampleScenario.node[1].veinsmobility acceleration ETV
vector 21 RSUExampleScenario.node[1].veinsmobility co2emission ETV
vector 22 RSUExampleScenario.node[2].veinsmobility acceleration ETV
vector 23 RSUExampleScenario.node[2].veinsmobility co2emission ETV
vector 24 RSUExampleScenario.node[3].veinsmobility acceleration ETV
vector 25 RSUExampleScenario.node[3].veinsmobility co2emission ETV
vector 26 RSUExampleScenario.node[4].veinsmobility acceleration ETV
vector 27 RSUExampleScenario.node[4].veinsmobility co2emission ETV
vector 28 RSUExampleScenario.node[5].veinsmobility acceleration ETV
vector 29 RSUExampleScenario.node[5].veinsmobility co2emission ETV
vector 30 RSUExampleScenario.node[6].veinsmobility posx ETV
vector 31 RSUExampleScenario.node[6].veinsmobility posy ETV
vector 32 RSUExampleScenario.node[7].veinsmobility posx ETV
vector 33 RSUExampleScenario.node[7].veinsmobility posy ETV
vector 34 RSUExampleScenario.node[8].veinsmobility posx ETV
vector 35 RSUExampleScenario.node[8].veinsmobility posy ETV
vector 36 RSUExampleScenario.node[9].veinsmobility posx ETV
vector 37 RSUExampleScenario.node[9].veinsmobility posy ETV
vector 38 RSUExampleScenario.node[10].veinsmobility posx ETV
vector 39 RSUExampleScenario.node[10].veinsmobility posy ETV
vector 40 RSUExampleScenario.node[11].veinsmobility posx ETV
vector 41 RSUExampleScenario.node[11].veinsmobility posy ETV
vector 42 RSUExampleScenario.node[6].veinsmobility speed ETV
vector 43 RSUExampleScenario.node[7].veinsmobility speed ETV
vector 44 RSUExampleScenario.node[8].veinsmobility speed ETV
vector 45 RSUExampleScenario.node[9].veinsmobility speed ETV
vector 46 RSUExampleScenario.node[10].veinsmobility speed ETV
vector 47 RSUExampleScenario.node[11].veinsmobility speed ETV
vector 48 RSUExampleScenario.node[6].veinsmobility acceleration ETV
vector 49 RSUExampleScenario.node[6].veinsmobility co2emission ETV
vector 50 RSUExampleScenario.node[7].veinsmobility acceleration ETV
vector 51 RSUExampleScenario.node[7].veinsmobility co2emission ETV
vector 52 RSUExampleScenario.node[8].veinsmobility acceleration ETV
vector 53 RSUExampleScenario.node[8].veinsmobility co2emission ETV
vector 54 RSUExampleScenario.node[9].veinsmobility acceleration ETV
vector 55 RSUExampleScenario.node[9].veinsmobility co2emission ETV
vector 56 RSUExampleScenario.node[10].veinsmobility acceleration ETV
vector 57 RSUExampleScenario.node[10].veinsmobility co2emission ETV
vector 58 RSUExampleScenario.node[11].veinsmobility acceleration ETV
vector 59 RSUExampleScenario.node[11].veinsmobility co2emission ETV
vector 60 RSUExampleScenario.node[12].veinsmobility posx ETV
vector 61 RSUExampleScenario.node[12].veinsmobility posy ETV
vector 62 RSUExampleScenario.node[13].veinsmobility posx ETV
vector 63 RSUExampleScenario.node[13].veinsmobility posy ETV
vector 64 RSUExampleScenario.node[14].veinsmobility posx ETV
vector 65 RSUExampleScenario.node[14].veinsmobility posy ETV
vector 66 RSUExampleScenario.node[15].veinsmobility posx ETV
vector 67 RSUExampleScenario.node[15].veinsmobility posy ETV
vector 68 RSUExampleScenario.node[16].veinsmobility posx ETV
vector 69 RSUExampleScenario.node[16].veinsmobility posy ETV
vector 70 RSUExampleScenario.node[17].veinsmobility posx ETV
vector 71 RSUExampleScenario.node[17].veinsmobility posy ETV
vector 72 RSUExampleScenario.node[12].veinsmobility speed ETV
vector 73 RSUExampleScenario.node[13].veinsmobility speed ETV
vector 74 RSUExampleScenario.node[14].veinsmobility speed ETV
vector 75 RSUExampleScenario.node[15].veinsmobility speed ETV
vector 76 RSUExampleScenario.node[16].veinsmobility speed ETV
vector 77 RSUExampleScenario.node[17].veinsmobility speed ETV
vector 78 RSUExampleScenario.node[12].veinsmobility acceleration ETV
vector 79 RSUExampleScenario.node[12].veinsmobility co2emission ETV
vector 80 RSUExampleScenario.node[13].veinsmobility acceleration ETV
vector 81 RSUExampleScenario.node[13].veinsmobility co2emission ETV
vector 82 RSUExampleScenario.node[14].veinsmobility acceleration ETV
vector 83 RSUExampleScenario.node[14].veinsmobility co2emission ETV
vector 84 RSUExampleScenario.node[15].veinsmobility acceleration ETV
vector 85 RSUExampleScenario.node[15].veinsmobility co2emission ETV
vector 86 RSUExampleScenario.node[16].veinsmobility acceleration ETV
vector 87 RSUExampleScenario.node[16].veinsmobility co2emission ETV
vector 88 RSUExampleScenario.node[17].veinsmobility acceleration ETV
vector 89 RSUExampleScenario.node[17].veinsmobility co2emission ETV
vector 90 RSUExampleScenario.node[18].veinsmobility posx ETV
vector 91 RSUExampleScenario.node[18].veinsmobility posy ETV
vector 92 RSUExampleScenario.node[19].veinsmobility posx ETV
vector 93 RSUExampleScenario.node[19].veinsmobility posy ETV
vector 94 RSUExampleScenario.node[20].veinsmobility posx ETV
vector 95 RSUExampleScenario.node[20].veinsmobility posy ETV
vector 96 RSUExampleScenario.node[21].veinsmobility posx ETV
vector 97 RSUExampleScenario.node[21].veinsmobility posy ETV
vector 98 RSUExampleScenario.node[22].veinsmobility posx ETV
vector 99 RSUExampleScenario.node[22].veinsmobility posy ETV
vector 100 RSUExampleScenario.node[23].veinsmobility posx ETV
vector 101 RSUExampleScenario.node[23].veinsmobility posy ETV
vector 102 RSUExampleScenario.node[18].veinsmobility speed ETV
vector 103 RSUExampleScenario.node[19].veinsmobility speed ETV
vector 104 RSUExampleScenario.node[20].veinsmobility speed ETV
vector 105 RSUExampleScenario.node[21].veinsmobility speed ETV
vector 106 RSUExampleScenario.node[22].veinsmobility speed ETV
vector 107 RSUExampleScenario.node[23].veinsmobility speed ETV
vector 108 RSUExampleScenario.node[18].veinsmobility acceleration ETV
vector 109 RSUExampleScenario.node[18].veinsmobility co2emission ETV
vector 110 RSUExampleScenario.node[19].veinsmobility acceleration ETV
vector 111 RSUExampleScenario.node[19].veinsmobility co2emission ETV
vector 112 RSUExampleScenario.node[20].veinsmobility acceleration ETV
vector 113 RSUExampleScenario.node[20].veinsmobility co2emission ETV
vector 114 RSUExampleScenario.node[21].veinsmobility acceleration ETV
vector 115 RSUExampleScenario.node[21].veinsmobility co2emission ETV
vector 116 RSUExampleScenario.node[22].veinsmobility acceleration ETV
vector 117 RSUExampleScenario.node[22].veinsmobility co2emission ETV
vector 118 RSUExampleScenario.node[23].veinsmobility acceleration ETV
vector 119 RSUExampleScenario.node[23].veinsmobility co2emission ETV
vector 120 RSUExampleScenario.node[24].veinsmobility posx ETV
vector 121 RSUExampleScenario.node[24].veinsmobility posy ETV
vector 122 RSUExampleScenario.node[25].veinsmobility posx ETV
vector 123 RSUExampleScenario.node[25].veinsmobility posy ETV
vector 124 RSUExampleScenario.node[26].veinsmobility posx ETV
vector 125 RSUExampleScenario.node[26].veinsmobility posy ETV
vector 126 RSUExampleScenario.node[27].veinsmobility posx ETV
vector 127 RSUExampleScenario.node[27].veinsmobility posy ETV
vector 128 RSUExampleScenario.node[28].veinsmobility posx ETV
vector 129 RSUExampleScenario.node[28].veinsmobility posy ETV
vector 130 RSUExampleScenario.node[29].veinsmobility posx ETV
vector 131 RSUExampleScenario.node[29].veinsmobility posy ETV
vector 132 RSUExampleScenario.node[24].veinsmobility speed ETV
vector 133 RSUExampleScenario.node[25].veinsmobility speed ETV
vector 134 RSUExampleScenario.node[26].veinsmobility speed ETV
vector 135 RSUExampleScenario.node[27].veinsmobility speed ETV
vector 136 RSUExampleScenario.node[28].veinsmobility speed ETV
vector 137 RSUExampleScenario.node[29].veinsmobility speed ETV
vector 138 RSUExampleScenario.node[24].veinsmobility acceleration ETV
vector 139 RSUExampleScenario.node[24].veinsmobility co2emission ETV
vector 140 RSUExampleScenario.node[25].veinsmobility acceleration ETV
vector 141 RSUExampleScenario.node[25].veinsmobility co2emission ETV
vector 142 RSUExampleScenario.node[26].veinsmobility acceleration ETV
vector 143 RSUExampleScenario.node[26].veinsmobility co2emission ETV
vector 144 RSUExampleScenario.node[27].veinsmobility acceleration ETV
vector 145 RSUExampleScenario.node[27].veinsmobility co2emission ETV
vector 146 RSUExampleScenario.node[28].veinsmobility acceleration ETV
vector 147 RSUExampleScenario.node[28].veinsmobility co2emission ETV
vector 148 RSUExampleScenario.node[29].veinsmobility acceleration ETV
vector 149 RSUExampleScenario.node[29].veinsmobility co2emission ETV
vector 150 RSUExampleScenario.node[30].veinsmobility posx ETV
vector 151 RSUExampleScenario.node[30].veinsmobility posy ETV
vector 152 RSUExampleScenario.node[31].veinsmobility posx ETV
vector 153 RSUExampleScenario.node[31].veinsmobility posy ETV
vector 154 RSUExampleScenario.node[32].veinsmobility posx ETV
vector 155 RSUExampleScenario.node[32].veinsmobility posy ETV
vector 156 RSUExampleScenario.node[33].veinsmobility posx ETV
vector 157 RSUExampleScenario.node[33].veinsmobility posy ETV
vector 158 RSUExampleScenario.node[34].veinsmobility posx ETV
vector 159 RSUExampleScenario.node[34].veinsmobility posy ETV
vector 160 RSUExampleScenario.node[35].veinsmobility posx ETV
vector 161 RSUExampleScenario.node[35].veinsmobility posy ETV
vector 162 RSUExampleScenario.node[30].veinsmobility speed ETV
vector 163 RSUExampleScenario.node[31].veinsmobility speed ETV
vector 164 RSUExampleScenario.node[32].veinsmobility speed ETV
vector 165 RSUExampleScenario.node[33].veinsmobility speed ETV
vector 166 RSUExampleScenario.node[34].veinsmobility speed ETV
vector 167 RSUExampleScenario.node[35].veinsmobility speed ETV
vector 168 RSUExampleScenario.node[30].veinsmobility acceleration ETV
vector 169 RSUExampleScenario.node[30].veinsmobility co2emission ETV
vector 170 RSUExampleScenario.node[31].veinsmobility acceleration ETV
vector 171 RSUExampleScenario.node[31].veinsmobility co2emission ETV
vector 172 RSUExampleScenario.node[32].veinsmobility acceleration ETV
vector 173 RSUExampleScenario.node[32].veinsmobility co2emission ETV
vector 174 RSUExampleScenario.node[33].veinsmobility acceleration ETV
vector 175 RSUExampleScenario.node[33].veinsmobility co2emission ETV
vector 176 RSUExampleScenario.node[34].veinsmobility acceleration ETV
vector 177 RSUExampleScenario.node[34].veinsmobility co2emission ETV
vector 178 RSUExampleScenario.node[35].veinsmobility acceleration ETV
vector 179 RSUExampleScenario.node[35].veinsmobility co2emission ETV
vector 180 RSUExampleScenario.node[36].veinsmobility posx ETV
vector 181 RSUExampleScenario.node[36].veinsmobility posy ETV
vector 182 RSUExampleScenario.node[37].veinsmobility posx ETV
vector 183 RSUExampleScenario.node[37].veinsmobility posy ETV
vector 184 RSUExampleScenario.node[38].veinsmobility posx ETV
vector 185 RSUExampleScenario.node[38].veinsmobility posy ETV
vector 186 RSUExampleScenario.node[39].veinsmobility posx ETV
vector 187 RSUExampleScenario.node[39].veinsmobility posy ETV
vector 188 RSUExampleScenario.node[40].veinsmobility posx ETV
vector 189 RSUExampleScenario.node[40].veinsmobility posy ETV
vector 190 RSUExampleScenario.node[41].veinsmobility posx ETV
vector 191 RSUExampleScenario.node[41].veinsmobility posy ETV
vector 192 RSUExampleScenario.node[36].veinsmobility speed ETV
vector 193 RSUExampleScenario.node[37].veinsmobility speed ETV
vector 194 RSUExampleScenario.node[38].veinsmobility speed ETV
vector 195 RSUExampleScenario.node[39].veinsmobility speed ETV
vector 196 RSUExampleScenario.node[40].veinsmobility speed ETV
vector 197 RSUExampleScenario.node[41].veinsmobility speed ETV
vector 198 RSUExampleScenario.node[36].veinsmobility acceleration ETV
vector 199 RSUExampleScenario.node[36].veinsmobility co2emission ETV
vector 200 RSUExampleScenario.node[37].veinsmobility acceleration ETV
vector 201 RSUExampleScenario.node[37].veinsmobility co2emission ETV
vector 202 RSUExampleScenario.node[38].veinsmobility acceleration ETV
vector 203 RSUExampleScenario.node[38].veinsmobility co2emission ETV
vector 204 RSUExampleScenario.node[39].veinsmobility acceleration ETV
vector 205 RSUExampleScenario.node[39].veinsmobility co2emission ETV
vector 206 RSUExampleScenario.node[40].veinsmobility acceleration ETV
vector 207 RSUExampleScenario.node[40].veinsmobility co2emission ETV
vector 208 RSUExampleScenario.node[41].veinsmobility acceleration ETV
vector 209 RSUExampleScenario.node[41].veinsmobility co2emission ETV
vector 210 RSUExampleScenario.node[42].veinsmobility posx ETV
vector 211 RSUExampleScenario.node[42].veinsmobility posy ETV
vector 212 RSUExampleScenario.node[43].veinsmobility posx ETV
vector 213 RSUExampleScenario.node[43].veinsmobility posy ETV
vector 214 RSUExampleScenario.node[44].veinsmobility posx ETV
vector 215 RSUExampleScenario.node[44].veinsmobility posy ETV
vector 216 RSUExampleScenario.node[45].veinsmobility posx ETV
vector 217 RSUExampleScenario.node[45].veinsmobility posy ETV
vector 218 RSUExampleScenario.node[46].veinsmobility posx ETV
vector 219 RSUExampleScenario.node[46].veinsmobility posy ETV
vector 220 RSUExampleScenario.node[47].veinsmobility posx ETV
vector 221 RSUExampleScenario.node[47].veinsmobility posy ETV
vector 222 RSUExampleScenario.node[42].veinsmobility speed ETV
vector 223 RSUExampleScenario.node[43].veinsmobility speed ETV
vector 224 RSUExampleScenario.node[44].veinsmobility speed ETV
vector 225 RSUExampleScenario.node[45].veinsmobility speed ETV
vector 226 RSUExampleScenario.node[46].veinsmobility speed ETV
vector 227 RSUExampleScenario.node[47].veinsmobility speed ETV
vector 228 RSUExampleScenario.node[42].veinsmobility acceleration ETV
vector 229 RSUExampleScenario.node[42].veinsmobility co2emission ETV
vector 230 RSUExampleScenario.node[43].veinsmobility acceleration ETV
vector 231 RSUExampleScenario.node[43].veinsmobility co2emission ETV
vector 232 RSUExampleScenario.node[44].veinsmobility acceleration ETV
vector 233 RSUExampleScenario.node[44].veinsmobility co2emission ETV
vector 234 RSUExampleScenario.node[45].veinsmobility acceleration ETV
vector 235 RSUExampleScenario.node[45].veinsmobility co2emission ETV
vector 236 RSUExampleScenario.node[46].veinsmobility acceleration ETV
vector 237 RSUExampleScenario.node[46].veinsmobility co2emission ETV
vector 238 RSUExampleScenario.node[47].veinsmobility acceleration ETV
vector 239 RSUExampleScenario.node[47].veinsmobility co2emission ETV
vector 240 RSUExampleScenario.node[48].veinsmobility posx ETV
vector 241 RSUExampleScenario.node[48].veinsmobility posy ETV
vector 242 RSUExampleScenario.node[49].veinsmobility posx ETV
vector 243 RSUExampleScenario.node[49].veinsmobility posy ETV
vector 244 RSUExampleScenario.node[50].veinsmobility posx ETV
vector 245 RSUExampleScenario.node[50].veinsmobility posy ETV
vector 246 RSUExampleScenario.node[51].veinsmobility posx ETV
vector 247 RSUExampleScenario.node[51].veinsmobility posy ETV
vector 248 RSUExampleScenario.node[52].veinsmobility posx ETV
vector 249 RSUExampleScenario.node[52].veinsmobility posy ETV
vector 250 RSUExampleScenario.node[53].veinsmobility posx ETV
vector 251 RSUExampleScenario.node[53].veinsmobility posy ETV
vector 252 RSUExampleScenario.node[48].veinsmobility speed ETV
vector 253 RSUExampleScenario.node[49].veinsmobility speed ETV
vector 254 RSUExampleScenario.node[50].veinsmobility speed ETV
vector 255 RSUExampleScenario.node[51].veinsmobility speed ETV
vector 256 RSUExampleScenario.node[52].veinsmobility speed ETV
vector 257 RSUExampleScenario.node[53].veinsmobility speed ETV
vector 258 RSUExampleScenario.node[48].veinsmobility acceleration ETV
vector 259 RSUExampleScenario.node[48].veinsmobility co2emission ETV
vector 260 RSUExampleScenario.node[49].veinsmobility acceleration ETV
vector 261 RSUExampleScenario.node[49].veinsmobility co2emission ETV
vector 262 RSUExampleScenario.node[50].veinsmobility acceleration ETV
vector 263 RSUExampleScenario.node[50].veinsmobility co2emission ETV
vector 264 RSUExampleScenario.node[51].veinsmobility acceleration ETV
vector 265 RSUExampleScenario.node[51].veinsmobility co2emission ETV
vector 266 RSUExampleScenario.node[52].veinsmobility acceleration ETV
vector 267 RSUExampleScenario.node[52].veinsmobility co2emission ETV
vector 268 RSUExampleScenario.node[53].veinsmobility acceleration ETV
vector 269 RSUExampleScenario.node[53].veinsmobility co2emission ETV
vector 270 RSUExampleScenario.node[54].veinsmobility posx ETV
vector 271 RSUExampleScenario.node[54].veinsmobility posy ETV
vector 272 RSUExampleScenario.node[55].veinsmobility posx ETV
vector 273 RSUExampleScenario.node[55].veinsmobility posy ETV
vector 274 RSUExampleScenario.node[56].veinsmobility posx ETV
vector 275 RSUExampleScenario.node[56].veinsmobility posy ETV
vector 276 RSUExampleScenario.node[57].veinsmobility posx ETV
vector 277 RSUExampleScenario.node[57].veinsmobility posy ETV
vector 278 RSUExampleScenario.node[58].veinsmobility posx ETV
vector 279 RSUExampleScenario.node[58].veinsmobility posy ETV
vector 280 RSUExampleScenario.node[59].veinsmobility posx ETV
vector 281 RSUExampleScenario.node[59].veinsmobility posy ETV
vector 282 RSUExampleScenario.node[54].veinsmobility speed ETV
vector 283 RSUExampleScenario.node[55].veinsmobility speed ETV
vector 284 RSUExampleScenario.node[56].veinsmobility speed ETV
vector 285 RSUExampleScenario.node[57].veinsmobility speed ETV
vector 286 RSUExampleScenario.node[58].veinsmobility speed ETV
vector 287 RSUExampleScenario.node[59].veinsmobility speed ETV
vector 288 RSUExampleScenario.node[54].veinsmobility acceleration ETV
vector 289 RSUExampleScenario.node[54].veinsmobility co2emission ETV
vector 290 RSUExampleScenario.node[55].veinsmobility acceleration ETV
vector 291 RSUExampleScenario.node[55].veinsmobility co2emission ETV
vector 292 RSUExampleScenario.node[56].veinsmobility acceleration ETV
vector 293 RSUExampleScenario.node[56].veinsmobility co2emission ETV
vector 294 RSUExampleScenario.node[57].veinsmobility acceleration ETV
vector 295 RSUExampleScenario.node[57].veinsmobility co2emission ETV
vector 296 RSUExampleScenario.node[58].veinsmobility acceleration ETV
vector 297 RSUExampleScenario.node[58].veinsmobility co2emission ETV
vector 298 RSUExampleScenario.node[59].veinsmobility acceleration ETV
vector 299 RSUExampleScenario.node[59].veinsmobility co2emission ETV
0	2	1	30.183689454127
0	3	2	30.183689454127
0	4	3	33.386291965801
0	5	4	38.363274774166
0	6	5	45.301290871088
0	7	6	54.323482962221
0	8	7	65.204779628657
0	9	8	78.13630091112
0	10	9	92.069430291444
0	11	10	106.00859798773
0	12	11	119.95556756986
0	13	12	133.8859997976
0	14	13	147.79520640663
0	15	14	161.7282219488
0	16	15	175.65794968703
0	17	16	189.60911959668
0	18	17	203.54074971117
0	19	18	217.45719749592
0	20	19	231.41121015317
0	21	20	245.36137228449
0	22	21	259.28833332525
0	23	22	273.23095083982
0	24	23	287.17308109092
0	25	24	301.10147004555
0	26	25	315.04822601438
0	27	26	328.97761337038
0	28	27	342.91475824993
0	29	28	356.85135736898
0	30	29	370.77603073978
0	31	30	384.70266465787
0	32	31	398.63241926785
0	33	32	412.56825979559
0	34	33	426.49306947418
0	35	34	440.42206601155
0	36	35	454.36687433493
0	37	36	468.3107326221
0	38	37	482.26246292855
0	39	38	496.2106456127
0	40	39	510.14816221242
0	41	40	524.08469212489
0	42	41	538.0387159502
0	43	42	551.97916940676
0	44	43	565.92467013951
0	45	44	579.83270985378
0	46	45	593.69138349528
0	47	46	604.586501772
0	48	47	614.52360800991
0	49	48	626.32767126851
0	50	49	639.87770671801
0	51	50	653.80898268622
0	52	51	667.74334952159
0	53	52	681.6820090643
0	54	53	695.63359808039
0	55	54	709.56715335159
0	56	55	723.48920149221
0	57	56	737.40966795007
1	2	1	629.8
1	3	2	629.8
1	4	3	629.8
1	5	4	629.8
1	6	5	629.8
1	7	6	629.8
1	8	7	629.8
1	9	8	629.8
1	10	9	629.8
1	11	10	629.8
1	12	11	629.8
1	13	12	629.8
1	14	13	629.8
1	15	14	629.8
1	16	15	629.8
1	17	16	629.8
1	18	17	629.8
1	19	18	629.8
1	20	19	629.8
1	21	20	629.8
1	22	21	629.8
1	23	22	629.8
1	24	23	629.8
1	25	24	629.8
1	26	25	629.8
1	27	26	629.8
1	28	27	629.8
1	29	28	629.8
1	30	29	629.8
1	31	30	629.8
1	32	31	629.8
1	33	32	629.8
1	34	33	629.8
1	35	34	629.8
1	36	35	629.8
1	37	36	629.8
1	38	37	629.8
1	39	38	629.8
1	40	39	629.8
1	41	40	629.8
1	42	41	629.8
1	43	42	629.8
1	44	43	629.8
1	45	44	629.8
1	46	45	629.8
1	47	46	629.8
1	48	47	629.8
1	49	48	629.8
1	50	49	629.8
1	51	50	629.8
1	52	51	629.8
1	53	52	629.8
1	54	53	629.8
1	55	54	629.8
1	56	55	629.8
1	57	56	629.8
2	2	1	1219.8419911047
2	3	2	1219.8419911047
2	4	3	1216.6472324509
2	5	4	1211.4258496926
2	6	5	1204.3103690164
2	7	6	1195.4379481198
2	8	7	1184.6849549077
2	9	8	1171.9923628959
2	10	9	1158.0796997702
2	11	10	1144.1548533694
2	12	11	1130.2104059632
2	13	12	1116.2840811658
2	14	13	1102.3429048196
2	15	14	1088.4009306616
2	16	15	1074.4571590595
2	17	16	1060.5174388702
2	18	17	1046.5723483792
2	19	18	1032.6395500889
2	20	19	1018.7141422502
2	21	20	1004.780447234
2	22	21	990.83763523842
2	23	22	976.89794053815
2	24	23	962.9689751751
2	25	24	949.0521629173
2	26	25	935.12140060259
2	27	26	921.18937091708
2	28	27	907.23338759965
2	29	28	893.26551308694
2	30	29	879.3245155033
2	31	30	865.38902795568
2	32	31	851.44389068957
2	33	32	837.49621730378
2	34	33	823.55396080088
2	35	34	809.63451004872
2	36	35	795.68552472899
2	37	36	781.7518752686
2	38	37	767.81089505462
2	39	38	753.88088336364
2	40	39	739.95781692491
2	41	40	726.03226843438
2	42	41	712.0939831146
2	43	42	698.16980277429
2	44	43	684.26483293053
2	45	44	670.30453534308
2	46	45	656.42913462042
2	47	46	645.5214083576
2	48	47	635.58995018431
2	49	48	623.81909509923
2	50	49	610.19748921503
2	51	50	596.26338063631
2	52	51	582.31442096405
2	53	52	568.40166370838
2	54	53	554.46552306715
2	55	54	540.52353120743
2	56	55	526.59286225964
2	57	56	512.65574340534
3	2	1	620.2
3	3	2	620.2
3	4	3	620.2
3	5	4	620.2
3	6	5	620.2
3	7	6	620.2
3	8	7	620.2
3	9	8	620.2
3	10	9	620.2
3	11	10	620.2
3	12	11	620.2
3	13	12	620.2
3	14	13	620.2
3	15	14	620.2
3	16	15	620.2
3	17	16	620.2
3	18	17	620.2
3	19	18	620.2
3	20	19	620.2
3	21	20	620.2
3	22	21	620.2
3	23	22	620.2
3	24	23	620.2
3	25	24	620.2
3	26	25	620.2
3	27	26	620.2
3	28	27	620.2
3	29	28	620.2
3	30	29	620.2
3	31	30	620.2
3	32	31	620.2
3	33	32	620.2
3	34	33	620.2
3	35	34	620.2
3	36	35	620.2
3	37	36	620.2
3	38	37	620.2
3	39	38	620.2
3	40	39	620.2
3	41	40	620.2
3	42	41	620.2
3	43	42	620.2
3	44	43	620.2
3	45	44	620.2
3	46	45	620.2
3	47	46	620.2
3	48	47	620.2
3	49	48	620.2
3	50	49	620.2
3	51	50	620.2
3	52	51	620.2
3	53	52	620.2
3	54	53	620.2
3	55	54	620.2
3	56	55	620.2
3	57	56	620.2
4	2	1	629.8
4	3	2	629.8
4	4	3	629.8
4	5	4	629.8
4	6	5	629.8
4	7	6	629.8
4	8	7	629.8
4	9	8	629.8
4	10	9	629.8
4	11	10	629.8
4	12	11	629.8
4	13	12	629.8
4	14	13	629.8
4	15	14	629.8
4	16	15	629.8
4	17	16	629.8
4	18	17	629.8
4	19	18	629.8
4	20	19	629.8
4	21	20	629.8
4	22	21	629.8
4	23	22	629.8
4	24	23	629.8
4	25	24	629.8
4	26	25	629.8
4	27	26	629.8
4	28	27	629.8
4	29	28	629.8
4	30	29	629.8
4	31	30	629.8
4	32	31	629.8
4	33	32	629.8
4	34	33	629.8
4	35	34	629.8
4	36	35	629.8
4	37	36	629.8
4	38	37	629.8
4	39	38	629.8
4	40	39	629.8
4	41	40	629.8
4	42	41	629.8
4	43	42	629.8
4	44	43	629.8
4	45	44	629.8
4	46	45	629.8
4	47	46	629.8
4	48	47	629.8
4	49	48	629.8
4	50	49	629.8
4	51	50	629.8
4	52	51	629.8
4	53	52	629.8
4	54	53	629.8
4	55	54	629.8
4	56	55	629.8
4	57	56	629.8
5	2	1	1219.8426939598
5	3	2	1219.8426939598
5	4	3	1216.6695841883
5	5	4	1211.6532204953
5	6	5	1204.669679505
5	7	6	1195.5983242862
5	8	7	1184.6015107503
5	9	8	1171.633430985
5	10	9	1157.6983835411
5	11	10	1143.7579667927
5	12	11	1129.8168817076
5	13	12	1115.8863377103
5	14	13	1101.9536789338
5	15	14	1088.0238752086
5	16	15	1074.1026139868
5	17	16	1060.1695386624
5	18	17	1046.2344943754
5	19	18	1032.2979882323
5	20	19	1018.3479332924
5	21	20	1004.4190470253
5	22	21	990.4862627838
5	23	22	976.55008660511
5	24	23	962.61443266867
5	25	24	948.65098992499
5	26	25	934.71127322369
5	27	26	920.77646796287
5	28	27	906.83004204093
5	29	28	892.90007630471
5	30	29	878.95962473458
5	31	30	865.03808656117
5	32	31	851.11233609446
5	33	32	837.1736947959
5	34	33	823.25744550984
5	35	34	809.30894460752
5	36	35	795.37868152845
5	37	36	781.44339387021
5	38	37	767.48886667182
5	39	38	753.56231324494
5	40	39	739.64426485746
5	41	40	725.70161766245
5	42	41	711.76342985962
5	43	42	697.82987344869
5	44	43	683.89336088557
5	45	44	669.95802966254
5	46	45	656.1175294323
5	47	46	645.31180842175
5	48	47	638.9807923393
5	49	48	637.10101553655
5	50	49	637.10100076815
5	51	50	637.10100076815
5	52	51	637.10100076815
5	53	52	637.10100076815
5	54	53	637.10100076815
5	55	54	637.10100076815
5	56	55	637.10100076815
5	57	56	637.10100076815
6	2	1	620.2
6	3	2	620.2
6	4	3	620.2
6	5	4	620.2
6	6	5	620.2
6	7	6	620.2
6	8	7	620.2
6	9	8	620.2
6	10	9	620.2
6	11	10	620.2
6	12	11	620.2
6	13	12	620.2
6	14	13	620.2
6	15	14	620.2
6	16	15	620.2
6	17	16	620.2
6	18	17	620.2
6	19	18	620.2
6	20	19	620.2
6	21	20	620.2
6	22	21	620.2
6	23	22	620.2
6	24	23	620.2
6	25	24	620.2
6	26	25	620.2
6	27	26	620.2
6	28	27	620.2
6	29	28	620.2
6	30	29	620.2
6	31	30	620.2
6	32	31	620.2
6	33	32	620.2
6	34	33	620.2
6	35	34	620.2
6	36	35	620.2
6	37	36	620.2
6	38	37	620.2
6	39	38	620.2
6	40	39	620.2
6	41	40	620.2
6	42	41	620.2
6	43	42	620.2
6	44	43	620.2
6	45	44	620.2
6	46	45	620.2
6	47	46	620.2
6	48	47	620.2
6	49	48	620.2
6	50	49	620.2
6	51	50	620.2
6	52	51	620.2
6	53	52	620.2
6	54	53	620.2
6	55	54	620.2
6	56	55	620.2
6	57	56	620.2
7	2	1	30.161250183234
7	3	2	30.161250183234
7	4	3	33.214258518142
7	5	4	38.144056402754
7	6	5	45.109022229576
7	7	6	53.857069090231
7	8	7	64.549015840553
7	9	8	77.055952424914
7	10	9	90.898299537151
7	11	10	104.81993627314
7	12	11	118.73803210839
7	13	12	132.67444213295
7	14	13	146.60673718352
7	15	14	160.53790735021
7	16	15	174.46532510061
7	17	16	188.39176637118
7	18	17	202.3368924905
7	19	18	216.27715950279
7	20	19	230.21240455986
7	21	20	244.15766841529
7	22	21	258.07491898372
7	23	22	272.00737215611
7	24	23	285.94098205284
7	25	24	299.8717922961
7	26	25	313.80136428816
7	27	26	327.75563901461
7	28	27	341.6727987763
7	29	28	355.61939905793
7	30	29	369.53903790061
7	31	30	383.49585633071
7	32	31	397.44522555075
7	33	32	411.36650730093
7	34	33	425.29063516971
7	35	34	439.22701431348
7	36	35	453.17586548767
7	37	36	467.12726662484
7	38	37	481.05726421709
7	39	38	494.99190584623
7	40	39	508.91605798636
7	41	40	522.86648394954
7	42	41	536.78235281974
7	43	42	550.72458119625
7	44	43	564.66547586288
7	45	44	578.60049151443
7	46	45	592.50567659422
7	47	46	603.77123059701
7	48	47	610.57612549682
7	49	48	612.89835611366
7	50	49	612.89899978565
7	51	50	612.89899978565
7	52	51	612.89899978565
7	53	52	612.89899978565
7	54	53	612.89899978565
7	55	54	612.89899978565
7	56	55	612.89899978565
7	57	56	612.89899978565
8	2	1	326.6
8	3	2	326.6
8	4	3	326.6
8	5	4	326.6
8	6	5	326.6
8	7	6	326.6
8	8	7	326.6
8	9	8	326.6
8	10	9	326.6
8	11	10	326.6
8	12	11	326.6
8	13	12	326.6
8	14	13	326.6
8	15	14	326.6
8	16	15	326.6
8	17	16	326.6
8	18	17	326.6
8	19	18	326.6
8	20	19	326.6
8	21	20	326.6
8	22	21	326.6
8	23	22	326.6
8	24	23	326.6
8	25	24	326.6
8	26	25	326.6
8	27	26	326.6
8	28	27	326.6
8	29	28	326.6
8	30	29	326.6
8	31	30	326.6
8	32	31	326.69155172966
8	33	32	326.78464579343
8	34	33	327.1560635327
8	35	34	327.7440299621
8	36	35	328.7240602039
8	37	36	330.04279596417
8	38	37	331.39961054338
8	39	38	332.75944823853
8	40	39	334.11298355711
8	41	40	335.46446311827
8	42	41	336.82389020976
8	43	42	338.18212893472
8	44	43	339.53976751182
8	45	44	340.89201113724
8	46	45	342.25703438197
8	47	46	343.62042349232
8	48	47	344.98571675776
8	49	48	346.34384338561
8	50	49	347.6935079624
8	51	50	349.03530272431
8	52	51	350.38723636949
8	53	52	351.73513813813
8	54	53	353.09022203626
8	55	54	354.44958616021
8	56	55	355.816355003
8	57	56	357.17369826223
9	2	1	674.09235483244
9	3	2	674.09235483244
9	4	3	672.73702653476
9	5	4	671.37143035217
9	6	5	670.01236150391
9	7	6	668.65522440483
9	8	7	667.29233845088
9	9	8	665.93484962828
9	10	9	664.57514722382
9	11	10	663.22452310958
9	12	11	661.87353043341
9	13	12	660.52503289204
9	14	13	659.1662561478
9	15	14	657.80572118452
9	16	15	656.45543051093
9	17	16	655.09981720826
9	18	17	653.74416647195
9	19	18	652.39269668553
9	20	19	651.02910987464
9	21	20	649.67857172222
9	22	21	648.3369337269
9	23	22	646.97876422677
9	24	23	645.61967681476
9	25	24	644.2514891579
9	26	25	642.89909869094
9	27	26	641.53899791873
9	28	27	640.18795926317
9	29	28	638.832150508
9	30	29	637.48153242593
9	31	30	636.11854922211
9	32	31	634.77009066389
9	33	32	633.41777689548
9	34	33	632.12392453543
9	35	34	630.92875452615
9	36	35	630.07986508859
9	37	36	629.8
9	38	37	629.8
9	39	38	629.8
9	40	39	629.8
9	41	40	629.8
9	42	41	629.8
9	43	42	629.8
9	44	43	629.8
9	45	44	629.8
9	46	45	629.8
9	47	46	629.8
9	48	47	629.8
9	49	48	629.8
9	50	49	629.8
9	51	50	629.8
9	52	51	629.8
9	53	52	629.8
9	54	53	629.8
9	55	54	629.8
9	56	55	629.8
9	57	56	629.8
10	2	1	323.4
10	3	2	323.4
10	4	3	323.4
10	5	4	323.4
10	6	5	323.4
10	7	6	323.4
10	8	7	323.4
10	9	8	323.4
10	10	9	323.4
10	11	10	323.4
10	12	11	323.4
10	13	12	323.4
10	14	13	323.4
10	15	14	323.4
10	16	15	323.4
10	17	16	323.4
10	18	17	323.4
10	19	18	323.4
10	20	19	323.4
10	21	20	323.4
10	22	21	323.4
10	23	22	323.4
10	24	23	323.4
10	25	24	323.4
10	26	25	323.4
10	27	26	323.4
10	28	27	323.4
10	29	28	323.4
10	30	29	323.4
10	31	30	323.4
10	32	31	323.4
10	33	32	323.4
10	34	33	323.4
10	35	34	323.4
10	36	35	323.4
10	37	36	323.4
10	38	37	323.4
10	39	38	323.4
10	40	39	323.4
10	41	40	323.4
10	42	41	323.4
10	43	42	323.4
10	44	43	323.4
10	45	44	323.4
10	46	45	323.4
10	47	46	323.4
10	48	47	323.4
10	49	48	323.4
10	50	49	323.4
10	51	50	323.4
10	52	51	323.4
10	53	52	323.4
10	54	53	323.4
10	55	54	323.4
10	56	55	323.4
10	57	56	323.4
11	2	1	565.91562407237
11	3	2	565.91562407237
11	4	3	567.26942981069
11	5	4	568.62272060319
11	6	5	569.96435327248
11	7	6	571.31549475005
11	8	7	572.66290742349
11	9	8	574.02737688856
11	10	9	575.38052867007
11	11	10	576.74848073798
11	12	11	578.11467786141
11	13	12	579.47639619445
11	14	13	580.83769512344
11	15	14	582.19576021572
11	16	15	583.55287394573
11	17	16	584.89567845058
11	18	17	586.24683472329
11	19	18	587.59788252547
11	20	19	588.94498771068
11	21	20	590.29099945183
11	22	21	591.63519011853
11	23	22	592.98716009649
11	24	23	594.34492600923
11	25	24	595.70070243013
11	26	25	597.05595874354
11	27	26	598.42108499614
11	28	27	599.78790129273
11	29	28	601.14471187405
11	30	29	602.49688892426
11	31	30	603.85295984503
11	32	31	605.20932098985
11	33	32	606.56483898299
11	34	33	607.90925269172
11	35	34	609.25539860553
11	36	35	610.62237093867
11	37	36	611.98035994591
11	38	37	613.3201736002
11	39	38	614.67876847209
11	40	39	616.03023500028
11	41	40	617.38720290532
11	42	41	618.73476541105
11	43	42	620.09135827288
11	44	43	621.44922338844
11	45	44	622.80156598159
11	46	45	624.1521039358
11	47	46	625.50883679537
11	48	47	626.86072565526
11	49	48	628.20765318606
11	50	49	629.56534252516
11	51	50	630.92348435041
11	52	51	632.28118953287
11	53	52	633.64530642666
11	54	53	634.99257535423
11	55	54	636.3412673131
11	56	55	637.69316714762
11	57	56	639.04275100528
12	3	2	4.0223714623906
12	4	3	5.8099665198711
12	5	4	7.8611911549259
12	6	5	9.8615111152551
12	7	6	11.853082954597
12	8	7	13.702160001172
12	9	8	13.876521669885
12	10	9	13.89170513683
12	11	10	13.960872707868
12	12	11	13.941789749481
12	13	12	13.934288488026
12	14	13	13.953742090373
12	15	14	13.885696711913
12	16	15	13.881901767964
12	17	16	13.954994556715
12	18	17	13.913285567721
12	19	18	13.963823226225
12	20	19	13.873024984468
12	21	20	13.928307235162
12	22	21	13.940456741669
12	23	22	13.95394263553
12	24	23	13.895773885443
12	25	24	13.986571823733
12	26	25	13.98334382179
12	27	26	13.919389053418
12	28	27	13.902054803725
12	29	28	13.883381347973
12	30	29	13.905544985854
12	31	30	13.952623030895
12	32	31	13.900516690793
12	33	32	13.923652964451
12	34	33	13.89076251406
12	35	34	13.957557090372
12	36	35	13.918085203299
12	37	36	13.969363841929
12	38	37	13.998774204776
12	39	38	13.911655153299
12	40	39	13.986245434228
12	41	40	13.9544484929
12	42	41	13.936493145786
12	43	42	13.921094822346
12	44	43	13.958932407438
12	45	44	13.272585111405
12	46	45	8.8701182767263
12	47	46	10.747732590055
12	48	47	12.625558608226
12	49	48	13.976368889667
12	50	49	13.986610798847
12	51	50	13.903466391279
12	52	51	13.961295656902
12	53	52	13.974159396172
12	54	53	13.896355195297
12	55	54	13.876205127069
12	56	55	13.913270127508
12	57	56	13.87251752123
13	3	2	4.0573153594273
13	4	3	6.1766421676657
13	5	4	7.9399339161973
13	6	5	9.622227055649
13	7	6	11.672788497207
13	8	7	13.630388862579
13	9	8	13.898281347442
13	10	9	13.940991757247
13	11	10	13.988913833033
13	12	11	13.985251229941
13	13	12	13.887094503955
13	14	13	13.912968797896
13	15	14	13.924865381075
13	16	15	13.998771058419
13	17	16	13.933632464772
13	18	17	13.941517859781
13	19	18	13.938555239104
13	20	19	13.926682973253
13	21	20	13.915817453621
13	22	21	13.999000761905
13	23	22	13.891978660033
13	24	23	13.957176540517
13	25	24	13.883527382428
13	26	25	13.908614343004
13	27	26	13.933303696446
13	28	27	13.940990405751
13	29	28	13.916131676759
13	30	29	13.927417375632
13	31	30	13.981879340813
13	32	31	13.917652520626
13	33	32	13.925571329764
13	34	33	13.880374049784
13	35	34	13.961389165539
13	36	35	13.964728085296
13	37	36	13.925780926864
13	38	37	13.95175167264
13	39	38	13.934142239818
13	40	39	13.900588041723
13	41	40	13.968070164879
13	42	41	13.871490289215
13	43	42	13.880418328333
13	44	43	13.979941420839
13	45	44	13.382726262813
13	46	45	8.8827262628131
13	47	46	10.764516346928
13	48	47	12.74404317583
13	49	48	13.913017374468
13	50	49	13.976080630678
13	51	50	13.901905528416
13	52	51	13.911397534076
13	53	52	13.94917775471
13	54	53	13.972420055117
13	55	54	13.983131681695
13	56	55	13.976827854787
13	57	56	13.969861664844
14	3	2	4.0186940901658
14	4	3	5.8143673106354
14	5	4	7.9253666016973
14	6	5	9.9480054582587
14	7	6	11.910962895402
14	8	7	13.780786642982
14	9	8	13.960168538513
14	10	9	13.931395901591
14	11	10	13.969302532342
14	12	11	13.979161170002
14	13	12	13.898135812348
14	14	13	13.873184127624
14	15	14	13.942792023909
14	16	15	13.881053691932
14	17	16	13.920820846728
14	18	17	13.991929170641
14	19	18	13.963637002606
14	20	19	13.939118066479
14	21	20	13.938298831538
14	22	21	13.941419434776
14	23	22	13.897603330684
14	24	23	13.935211359151
14	25	24	13.90704802915
14	26	25	13.975737604315
14	27	26	13.914034491982
14	28	27	13.926557697882
14	29	28	13.927742883491
14	30	29	13.907276168538
14	31	30	13.918003993845
14	32	31	13.919482324512
14	33	32	13.91593522338
14	34	33	13.990407031002
14	35	34	13.942229103218
14	36	35	13.963149704717
14	37	36	13.974734613444
14	38	37	13.928210113617
14	39	38	13.944910993341
14	40	39	13.903425577204
14	41	40	13.889780025389
14	42	41	13.908829811881
14	43	42	13.874829174739
14	44	43	13.926647737385
14	45	44	13.217399048092
14	46	45	8.7885093563575
14	47	46	4.3267730099934
14	48	47	0.004457897718883
14	49	48	0
14	50	49	0
14	51	50	0
14	52	51	0
14	53	52	0
14	54	53	0
14	55	54	0
14	56	55	0
14	57	56	0
15	3	2	3.7892383118386
15	4	3	5.8639939734752
15	5	4	7.7213632795347
15	6	5	9.606543676899
15	7	6	11.499251646527
15	8	7	13.300608151478
15	9	8	13.89838214346
15	10	9	13.873209290246
15	11	10	13.934848407344
15	12	11	13.930485761089
15	13	12	13.91112198204
15	14	13	13.875188487032
15	15	14	13.99025634693
15	16	15	13.901585272991
15	17	16	13.991537327257
15	18	17	13.973526233691
15	19	18	13.886184739745
15	20	19	13.964265055428
15	21	20	13.898407637577
15	22	21	13.875714007816
15	23	22	13.927602019927
15	24	23	13.988420902696
15	25	24	13.987687333624
15	26	25	13.975383963939
15	27	26	13.887993921267
15	28	27	13.991166179031
15	29	28	13.901990186302
15	30	29	13.999588226299
15	31	30	13.975990886106
15	32	31	13.889860321356
15	33	32	13.900227409382
15	34	33	13.873273499475
15	35	34	13.892353703959
15	36	35	13.921954128798
15	37	36	13.915266717034
15	38	37	13.919864564138
15	39	38	13.899366851379
15	40	39	13.999242874053
15	41	40	13.952438446803
15	42	41	13.991121255835
15	43	42	13.987523669128
15	44	43	13.871163629235
15	45	44	13.681585567363
15	46	45	9.2740673594251
15	47	46	4.7960743870963
15	48	47	0.30763668455271
15	49	48	0
15	50	49	0
15	51	50	0
15	52	51	0
15	53	52	0
15	54	53	0
15	55	54	0
15	56	55	0
15	57	56	0
16	3	2	1.3522243386533
16	4	3	1.3869450365829
16	5	4	1.3325936668733
16	6	5	1.3430718633162
16	7	6	1.3378694214458
16	8	7	1.3753836856547
16	9	8	1.3607831713607
16	10	9	1.3577432442011
16	11	10	1.3668217968658
16	12	11	1.3218872227796
16	13	12	1.3381239519151
16	14	13	1.3252096466448
16	15	14	1.3356344348356
16	16	15	1.3539779578989
16	17	16	1.3425488246966
16	18	17	1.3570724477152
16	19	18	1.387991997199
16	20	19	1.3826427905028
16	21	20	1.343157160272
16	22	21	1.3890546508405
16	23	22	1.3891139514914
16	24	23	1.3724658201628
16	25	24	1.3253625588773
16	26	25	1.3234045939654
16	27	26	1.322315451512
16	28	27	1.389426615909
16	29	28	1.370779814236
16	30	29	1.3305243908199
16	31	30	1.3505955294451
16	32	31	1.3814241610551
16	33	32	1.3808579650664
16	34	33	1.3316762350973
16	35	34	1.3872249162011
16	36	35	1.3431342648073
16	37	36	1.3537820778015
16	38	37	1.3860934868425
16	39	38	1.3528449365979
16	40	39	1.3477742978126
16	41	40	1.3570743020443
16	42	41	1.3429877850874
16	43	42	1.3247793672341
16	44	43	1.3473855553325
16	45	44	1.3789789886953
16	46	45	1.330449784777
16	47	46	1.3752939191596
16	48	47	1.3866276308052
16	49	48	1.3627416904969
16	50	49	1.3563862396852
16	51	50	1.3342629760383
16	52	51	1.3279497324853
16	53	52	1.3576148851381
16	54	53	1.3862757626198
16	55	54	1.3558732692893
16	56	55	1.3718416486774
16	57	56	1.3770714154859
17	3	2	1.3467348996955
17	4	3	1.345147821178
17	5	4	1.338819738542
17	6	5	1.3433439948148
17	7	6	1.3212381004423
17	8	7	1.3669882666693
17	9	8	1.3859108083181
17	10	9	1.3313123001151
17	11	10	1.3775312586579
17	12	11	1.387234208705
17	13	12	1.3491983278783
17	14	13	1.3693681530638
17	15	14	1.3253480938511
17	16	15	1.3767978413376
17	17	16	1.3897119204521
17	18	17	1.349016109983
17	19	18	1.3682897663149
17	20	19	1.3533513778601
17	21	20	1.3249931195341
17	22	21	1.3222822707134
17	23	22	1.339484030911
17	24	23	1.3754127459215
17	25	24	1.3488566058801
17	26	25	1.3775841972838
17	27	26	1.3568595028026
17	28	27	1.3427255348974
17	29	28	1.3627904415339
17	30	29	1.3469363691079
17	31	30	1.3406512797258
17	32	31	1.3254828532574
17	33	32	1.3210845296781
17	34	33	1.3224319190749
17	35	34	1.3718059903103
17	36	35	1.3646463626134
17	37	36	1.3320344802759
17	38	37	1.3753514403704
17	39	38	1.3232345429509
17	40	39	1.3368356070125
17	41	40	1.3303057651169
17	42	41	1.3625516953872
17	43	42	1.3886084319405
17	44	43	1.3402769901033
17	45	44	1.3804185181395
17	46	45	1.3682361232336
17	47	46	1.3851925367408
17	48	47	1.3556803343153
17	49	48	1.366199337375
17	50	49	1.3538819447544
17	51	50	1.3882829079509
17	52	51	1.3617365346676
17	53	52	1.3254751770656
17	54	53	1.3519912035052
17	55	54	1.3534767362316
17	56	55	1.3333225473544
17	57	56	1.3242349214643
18	4	3	1.7875950574805
18	5	4	2.0512246350548
18	6	5	2.0003199603292
18	7	6	1.9915718393424
18	8	7	1.8490770465741
18	9	8	0.17436166871312
18	10	9	0.015183466945309
18	11	10	0.069167571037543
18	12	11	-0.01908295838628
18	13	12	-0.0075012614554737
18	14	13	0.019453602347058
18	15	14	-0.068045378460084
18	16	15	-0.0037949439487406
18	17	16	0.073092788751236
18	18	17	-0.04170898899436
18	19	18	0.050537658503746
18	20	19	-0.090798241756858
18	21	20	0.055282250694001
18	22	21	0.012149506506974
18	23	22	0.013485893860926
18	24	23	-0.058168750086335
18	25	24	0.090797938290052
18	26	25	-0.0032280019437891
18	27	26	-0.063954768371767
18	28	27	-0.017334249692505
18	29	28	-0.018673455752431
18	30	29	0.022163637881167
18	31	30	0.047078045040834
18	32	31	-0.052106340101455
18	33	32	0.023136273657437
18	34	33	-0.032890450390987
18	35	34	0.066794576311949
18	36	35	-0.039471887073013
18	37	36	0.051278638630174
18	38	37	0.029410362846683
18	39	38	-0.087119051476474
18	40	39	0.074590280929113
18	41	40	-0.031796941328793
18	42	41	-0.017955347113311
18	43	42	-0.01539832344046
18	44	43	0.037837585092056
18	45	44	-0.68634729603328
18	46	45	-4.4024668346783
18	47	46	1.8776143133291
18	48	47	1.8778260181705
18	49	48	1.3508102814408
18	50	49	0.010241909180769
18	51	50	-0.083144407568033
18	52	51	0.057829265622422
18	53	52	0.012863739270252
18	54	53	-0.077804200875107
18	55	54	-0.020150068227668
18	56	55	0.037065000438597
18	57	56	-0.040752606277819
19	4	3	3.9113841411907
19	5	4	5.4202439212805
19	6	5	6.4283218319309
19	7	6	7.5247419576606
19	8	7	8.1147035212765
19	9	8	2.6093504096732
19	10	9	2.0786191861739
19	11	10	2.2675598905165
19	12	11	1.9687726099023
19	13	12	2.0069346187727
19	14	13	2.099531367469
19	15	14	1.7994647402265
19	16	15	2.0140934672581
19	17	16	2.2800620756693
19	18	17	1.8901289475836
19	19	18	2.2052159164191
19	20	19	1.7223128566127
19	21	20	2.2170819817883
19	22	21	2.0735727894871
19	23	22	2.0794839957302
19	24	23	1.8334001352262
19	25	24	2.3435295730786
19	26	25	2.02626216444
19	27	26	1.8160645260643
19	28	27	1.9707630538624
19	29	28	1.9644605793706
19	30	29	2.1034705820617
19	31	30	2.1923012153729
19	32	31	1.8541255509056
19	33	32	2.1086762505015
19	34	33	1.9175840632706
19	35	34	2.2591834118827
19	36	35	1.8980736344923
19	37	36	2.2083447990529
19	38	37	2.1379438124191
19	39	38	1.7377325066472
19	40	39	2.288858081244
19	41	40	1.9272501655324
19	42	41	1.9720435537883
19	43	42	1.9791182124175
19	44	43	2.1619318642833
19	45	44	0.973
19	46	45	0.973
19	47	46	6.6065632797699
19	48	47	7.6187494475008
19	49	48	6.5863671274809
19	50	49	2.0719983149075
19	51	50	1.750388440456
19	52	51	2.2294605087797
19	53	52	2.0795222013078
19	54	53	1.7676915885099
19	55	54	1.95882551878
19	56	55	2.15426444397
19	57	56	1.8895888231968
20	4	3	2.1193268082384
20	5	4	1.7632917485316
20	6	5	1.6822931394516
20	7	6	2.0505614415579
20	8	7	1.9576003653719
20	9	8	0.26789248486311
20	10	9	0.042710409804712
20	11	10	0.047922075786628
20	12	11	-0.0036626030923799
20	13	12	-0.098156725985465
20	14	13	0.025874293940143
20	15	14	0.011896583179476
20	16	15	0.073905677343719
20	17	16	-0.065138593646697
20	18	17	0.0078853950090707
20	19	18	-0.002962620677426
20	20	19	-0.011872265851126
20	21	20	-0.010865519631187
20	22	21	0.083183308283331
20	23	22	-0.10702210187213
20	24	23	0.065197880484629
20	25	24	-0.073649158088955
20	26	25	0.025086960576008
20	27	26	0.024689353441355
20	28	27	0.0076867093052719
20	29	28	-0.024858728991822
20	30	29	0.011285698872525
20	31	30	0.0544619651814
20	32	31	-0.064226820187178
20	33	32	0.007918809137772
20	34	33	-0.045197279979474
20	35	34	0.081015115755145
20	36	35	0.0033389197569331
20	37	36	-0.038947158432565
20	38	37	0.025970745775849
20	39	38	-0.017609432821628
20	40	39	-0.033554198094643
20	41	40	0.067482123156077
20	42	41	-0.09657987566432
20	43	42	0.0089280391181816
20	44	43	0.099523092505988
20	45	44	-0.59721515802604
20	46	45	-4.5
20	47	46	1.8817900841148
20	48	47	1.9795268289023
20	49	48	1.1689741986378
20	50	49	0.063063256209716
20	51	50	-0.074175102261361
20	52	51	0.0094920056592684
20	53	52	0.037780220634303
20	54	53	0.023242300406563
20	55	54	0.010711626578123
20	56	55	-0.0063038269081162
20	57	56	-0.0069661899423217
21	4	3	4.5844977168077
21	5	4	4.9133642109294
21	6	5	5.5576411500814
21	7	6	7.5885411740583
21	8	7	8.4320340249522
21	9	8	2.9257576279179
21	10	9	2.1763068625384
21	11	10	2.1992721867924
21	12	11	2.0249912702404
21	13	12	1.6988075965251
21	14	13	2.1167083267832
21	15	14	2.0710874504475
21	16	15	2.2880574801782
21	17	16	1.8133223850547
21	18	17	2.059357225591
21	19	18	2.0226085628137
21	20	19	1.9915019122956
21	21	20	1.9938016043753
21	22	21	2.3193856201972
21	23	22	1.6695078164327
21	24	23	2.253767609863
21	25	24	1.7805299105966
21	26	25	2.1135984682455
21	27	26	2.1149296136414
21	28	27	2.0586348281316
21	29	28	1.9469025497156
21	30	29	2.0693046000856
21	31	30	2.2205073182718
21	32	31	1.8150017857274
21	33	32	2.0578118080786
21	34	33	1.8754417282091
21	35	34	2.3074846832338
21	36	35	2.0464721577733
21	37	36	1.9005460909898
21	38	37	2.1212316911294
21	39	38	1.9729754224821
21	40	39	1.916282367388
21	41	40	2.262742316858
21	42	41	1.7028623865125
21	43	42	2.0565047253039
21	44	43	2.3721018313924
21	45	44	0.973
21	46	45	0.973
21	47	46	6.6263387892593
21	48	47	7.9957247730265
21	49	48	5.9495700681411
21	50	49	2.2488086179465
21	51	50	1.7803112059395
21	52	51	2.061614422837
21	53	52	2.160653114667
21	54	53	2.1142870659344
21	55	54	2.0732162385744
21	56	55	2.0152393135583
21	57	56	2.0123068903946
22	4	3	1.7956732204696
22	5	4	2.1109992910619
22	6	5	2.0226388565614
22	7	6	1.9629574371432
22	8	7	1.8698237475799
22	9	8	0.17938189553083
22	10	9	-0.028772636922076
22	11	10	0.037906630751676
22	12	11	0.0098586376593452
22	13	12	-0.081025357653852
22	14	13	-0.024951684724074
22	15	14	0.069607896285598
22	16	15	-0.061738331976812
22	17	16	0.039767154795117
22	18	17	0.071108323913068
22	19	18	-0.028292168034239
22	20	19	-0.024518936127425
22	21	20	-0.00081923494115443
22	22	21	0.0031206032377664
22	23	22	-0.043816104091238
22	24	23	0.037608028466348
22	25	24	-0.028163330000826
22	26	25	0.068689575165045
22	27	26	-0.061703112332616
22	28	27	0.012523205899633
22	29	28	0.0011851856089198
22	30	29	-0.020466714953074
22	31	30	0.010727825306823
22	32	31	0.0014783306675952
22	33	32	-0.0035471011325718
22	34	33	0.074471807621885
22	35	34	-0.048177927783689
22	36	35	0.020920601498801
22	37	36	0.011584908727089
22	38	37	-0.046524499827063
22	39	38	0.01670087972423
22	40	39	-0.041485416137148
22	41	40	-0.013645551814697
22	42	41	0.019049786492252
22	43	42	-0.034000637142455
22	44	43	0.051818562645932
22	45	44	-0.70924868929272
22	46	45	-4.4288896917346
22	47	46	-4.4617363463641
22	48	47	-4.3223151122745
22	49	48	-0.004457897718883
22	50	49	0
22	51	50	0
22	52	51	0
22	53	52	0
22	54	53	0
22	55	54	0
22	56	55	0
22	57	56	0
23	4	3	3.924853169192
23	5	4	5.5703430588982
23	6	5	6.5300517780865
23	7	6	7.4754404709078
23	8	7	8.2265526182904
23	9	8	2.6382812905296
23	10	9	1.9352267629957
23	11	10	2.1633195408488
23	12	11	2.0699256575778
23	13	12	1.757050297905
23	14	13	1.942479379497
23	15	14	2.2668904965954
23	16	15	1.8201680593778
23	17	16	2.1641669443093
23	18	17	2.277801339202
23	19	18	1.9399135908275
23	20	19	1.9502508950069
23	21	20	2.0297824826478
23	22	21	2.0433378503026
23	23	22	1.8816322920681
23	24	23	2.1585215376795
23	25	24	1.9349558776831
23	26	25	2.2677185899855
23	27	26	1.8231517878918
23	28	27	2.0733680255146
23	29	28	2.0354354448914
23	30	29	1.9607739503067
23	31	30	2.0664479609392
23	32	31	2.0355741586849
23	33	32	2.0183573733613
23	34	33	2.2889598676092
23	35	34	1.8710541078925
23	36	35	2.1054739046672
23	37	36	2.0752758766957
23	38	37	1.8753362003472
23	39	38	2.0893365844215
23	40	39	1.889972950475
23	41	40	1.9819130067983
23	42	41	2.0933849405904
23	43	42	1.9123784069348
23	44	43	2.2052653549163
23	45	44	0.973
23	46	45	0.973
23	47	46	0.973
23	48	47	0.973
23	49	48	0.973
23	50	49	0.973
23	51	50	0.973
23	52	51	0.973
23	53	52	0.973
23	54	53	0.973
23	55	54	0.973
23	56	55	0.973
23	57	56	0.973
24	4	3	2.0747556616366
24	5	4	1.8573693060596
24	6	5	1.8851803973643
24	7	6	1.8927079696278
24	8	7	1.8013565049507
24	9	8	0.59777399198224
24	10	9	-0.025172853213736
24	11	10	0.061639117097949
24	12	11	-0.0043626462551778
24	13	12	-0.019363779048435
24	14	13	-0.035933495007921
24	15	14	0.11506785989739
24	16	15	-0.088671073939185
24	17	16	0.089952054265886
24	18	17	-0.018011093565729
24	19	18	-0.087341493945569
24	20	19	0.078080315683037
24	21	20	-0.06585741785122
24	22	21	-0.022693629760761
24	23	22	0.051888012110721
24	24	23	0.060818882768508
24	25	24	-0.00073356907116384
24	26	25	-0.01230336968554
24	27	26	-0.087390042671469
24	28	27	0.1031722577638
24	29	28	-0.089175992729141
24	30	29	0.097598039996809
24	31	30	-0.023597340192646
24	32	31	-0.086130564750636
24	33	32	0.010367088026833
24	34	33	-0.026953909907025
24	35	34	0.019080204484053
24	36	35	0.029600424838717
24	37	36	-0.0066874117637052
24	38	37	0.0045978471031418
24	39	38	-0.02049771275837
24	40	39	0.099876022674144
24	41	40	-0.046804427250754
24	42	41	0.038682809032034
24	43	42	-0.0035975867067464
24	44	43	-0.11636003989261
24	45	44	-0.1895780618727
24	46	45	-4.4075182079375
24	47	46	-4.4779929723288
24	48	47	-4.4884377025436
24	49	48	-0.30763668455271
24	50	49	0
24	51	50	0
24	52	51	0
24	53	52	0
24	54	53	0
24	55	54	0
24	56	55	0
24	57	56	0
25	4	3	4.3435979938817
25	5	4	4.9812875565828
25	6	5	6.0198441792717
25	7	6	7.0504919840992
25	8	7	7.7431371431695
25	9	8	4.0307158325726
25	10	9	1.9417423198503
25	11	10	2.23918477481
25	12	11	2.0170905873324
25	13	12	1.9648443831863
25	14	13	1.9059486434653
25	15	14	2.425817472402
25	16	15	1.7317187354805
25	17	16	2.3412947766336
25	18	17	1.9754807313565
25	19	18	1.7349305471666
25	20	19	2.297958212668
25	21	20	1.8078779149165
25	22	21	1.9502722162616
25	23	22	2.2056077148179
25	24	23	2.2426938202385
25	25	24	2.0351125774014
25	26	25	1.9948868256973
25	27	26	1.7349139409583
25	28	27	2.3858255125455
25	29	28	1.7300596328714
25	30	29	2.3680915179363
25	31	30	1.9569066495406
25	32	31	1.7392804934919
25	33	32	2.0633828988758
25	34	33	1.9357935627869
25	35	34	2.0917340347191
25	36	35	2.1301820239083
25	37	36	2.0077585394768
25	38	37	2.0460782616799
25	39	38	1.95990387123
25	40	39	2.3757334754187
25	41	40	1.8765969090468
25	42	41	2.1683703844104
25	43	42	2.025441252852
25	44	43	1.6367127039795
25	45	44	1.3814932813426
25	46	45	0.973
25	47	46	0.973
25	48	47	0.973
25	49	48	0.973
25	50	49	0.973
25	51	50	0.973
25	52	51	0.973
25	53	52	0.973
25	54	53	0.973
25	55	54	0.973
25	56	55	0.973
25	57	56	0.973
26	4	3	0.034720697929617
26	5	4	-0.054351369709591
26	6	5	0.010478196442942
26	7	6	-0.0052024418704677
26	8	7	0.037514264208963
26	9	8	-0.014600514293998
26	10	9	-0.0030399271596688
26	11	10	0.0090785526647232
26	12	11	-0.044934574086219
26	13	12	0.016236729135504
26	14	13	-0.0129143052703
26	15	14	0.010424788190867
26	16	15	0.018343523063231
26	17	16	-0.011429133202299
26	18	17	0.014523623018642
26	19	18	0.030919549483806
26	20	19	-0.0053492066962644
26	21	20	-0.039485630230745
26	22	21	0.045897490568459
26	23	22	5.9300650959049e-05
26	24	23	-0.016648131328635
26	25	24	-0.047103261285461
26	26	25	-0.0019579649119406
26	27	26	-0.001089142453391
26	28	27	0.067111164396978
26	29	28	-0.018646801672992
26	30	29	-0.040255423416034
26	31	30	0.02007113862515
26	32	31	0.030828631610027
26	33	32	-0.00056619598867846
26	34	33	-0.049181729969103
26	35	34	0.055548681103741
26	36	35	-0.044090651393752
26	37	36	0.010647812994197
26	38	37	0.032311409040936
26	39	38	-0.033248550244607
26	40	39	-0.0050706387852553
26	41	40	0.0093000042317437
26	42	41	-0.014086516956915
26	43	42	-0.01820841785334
26	44	43	0.022606188098434
26	45	44	0.031593433362781
26	46	45	-0.048529203918297
26	47	46	0.044844134382554
26	48	47	0.011333711645682
26	49	48	-0.023885940308333
26	50	49	-0.0063554508116797
26	51	50	-0.022123263646965
26	52	51	-0.0063132435529261
26	53	52	0.029665152652771
26	54	53	0.028660877481685
26	55	54	-0.030402493330534
26	56	55	0.015968379388098
26	57	56	0.0052297668085666
27	4	3	1.1887582144532
27	5	4	1.1570477082821
27	6	5	1.1784051779946
27	7	6	1.1730826302529
27	8	7	1.1890236172714
27	9	8	1.1710887365441
27	10	9	1.174734041056
27	11	10	1.1791618848997
27	12	11	1.1596661968236
27	13	12	1.180008588602
27	14	13	1.1700185943891
27	15	14	1.178006726144
27	16	15	1.1815308494365
27	17	16	1.1712901544601
27	18	17	1.1804460681562
27	19	18	1.1875465318011
27	20	19	1.1751604179043
27	21	20	1.1622362163152
27	22	21	1.1926203285628
27	23	22	1.1772783298201
27	24	23	1.1709399679167
27	25	24	1.1591051936931
27	26	25	1.1734306800229
27	27	26	1.1736550001384
27	28	27	1.1997460226987
27	29	28	1.170204243907
27	30	29	1.1614939294812
27	31	30	1.1819133415646
27	32	31	1.1871469996861
27	33	32	1.1766673971462
27	34	33	1.1586741303428
27	35	34	1.195737443455
27	36	35	1.160744694292
27	37	36	1.1790096209686
27	38	37	1.1879047370921
27	39	38	1.1646497543672
27	40	39	1.1735957840372
27	41	40	1.1787377548905
27	42	41	1.170450251194
27	43	42	1.1683087065402
27	44	43	1.1825645274886
27	45	44	1.1872637563627
27	46	45	1.158838125953
27	47	46	1.1914478832416
27	48	47	1.1809246787009
27	49	48	1.1681278039924
27	50	49	1.173585072251
27	51	50	1.1674703778327
27	52	51	1.1722561610273
27	53	52	1.1854284951468
27	54	53	1.1866954314671
27	55	54	1.1657031079474
27	56	55	1.181695506264
27	57	56	1.1784067857973
28	4	3	-0.0015870785175356
28	5	4	-0.0063280826359988
28	6	5	0.0045242562728236
28	7	6	-0.022105894372449
28	8	7	0.045750166226993
28	9	8	0.018922541648732
28	10	9	-0.054598508202936
28	11	10	0.046218958542799
28	12	11	0.0097029500470962
28	13	12	-0.038035880826763
28	14	13	0.020169825185556
28	15	14	-0.044020059212693
28	16	15	0.051449747486506
28	17	16	0.012914079114445
28	18	17	-0.0406958104691
28	19	18	0.019273656331934
28	20	19	-0.014938388454844
28	21	20	-0.028358258325956
28	22	21	-0.002710848820745
28	23	22	0.01720176019764
28	24	23	0.035928715010523
28	25	24	-0.026556140041444
28	26	25	0.02872759140376
28	27	26	-0.020724694481236
28	28	27	-0.014133967905189
28	29	28	0.020064906636486
28	30	29	-0.01585407242598
28	31	30	-0.0062850893820869
28	32	31	-0.015168426468386
28	33	32	-0.0043983235793421
28	34	33	0.0013473893967457
28	35	34	0.049374071235419
28	36	35	-0.0071596276968484
28	37	36	-0.032611882337485
28	38	37	0.043316960094497
28	39	38	-0.052116897419561
28	40	39	0.01360106406163
28	41	40	-0.0065298418955644
28	42	41	0.032245930270292
28	43	42	0.026056736553321
28	44	43	-0.048331441837246
28	45	44	0.040141528036213
28	46	45	-0.012182394905947
28	47	46	0.016956413507229
28	48	47	-0.029512202425511
28	49	48	0.010519003059715
28	50	49	-0.012317392620607
28	51	50	0.034400963196531
28	52	51	-0.026546373283374
28	53	52	-0.036261357601965
28	54	53	0.026516026439611
28	55	54	0.0014855327263941
28	56	55	-0.020154188877204
28	57	56	-0.009087625890039
29	4	3	1.174600275527
29	5	4	1.1727645595401
29	6	5	1.1764915651506
29	7	6	1.1669106697284
29	8	7	1.191251615203
29	9	8	1.1834224628758
29	10	9	1.1569227558938
29	11	10	1.1920375881378
29	12	11	1.180410718369
29	13	12	1.1629445841729
29	14	13	1.1829519297246
29	15	14	1.1600894552175
29	16	15	1.1937292723081
29	17	16	1.1816128340706
29	18	17	1.1620725950024
29	19	18	1.1825985877151
29	20	19	1.1706423839273
29	21	20	1.1650771029615
29	22	21	1.1731366029156
29	23	22	1.180391723607
29	24	23	1.188499728023
29	25	24	1.1666628299302
29	26	25	1.1862336641481
29	27	26	1.1689086311696
29	28	27	1.1704230045078
29	29	28	1.182564786579
29	30	29	1.1700555364117
29	31	30	1.1728649219156
29	32	31	1.1693109970015
29	33	32	1.1725417660166
29	34	33	1.1744371819507
29	35	34	1.1927377271731
29	36	35	1.1737106486401
29	37	36	1.1640065996138
29	38	37	1.1909451131477
29	39	38	1.1574268147319
29	40	39	1.1790916071068
29	41	40	1.1722979426063
29	42	41	1.1865519352447
29	43	42	1.1859538284397
29	44	43	1.1592659908877
29	45	44	1.1901887067991
29	46	45	1.1722232503221
29	47	46	1.18272780044
29	48	47	1.1659859910344
29	49	48	1.1796044475378
29	50	49	1.1715215308342
29	51	50	1.1887276865462
29	52	51	1.1672114876176
29	53	52	1.1625727352778
29	54	53	1.1840880632623
29	55	54	1.1760053277949
29	56	55	1.168062286227
29	57	56	1.1711953820931
30	5	4	30.150528737562
30	6	5	30.150528737562
30	7	6	33.289596845074
30	8	7	38.436971850698
30	9	8	45.616945214263
30	10	9	54.691881455809
30	11	10	65.818680620762
30	12	11	78.98056752618
30	13	12	92.907950022612
30	14	13	106.84729872119
30	15	14	120.79226494158
30	16	15	134.73952349318
30	17	16	148.6658617672
30	18	17	162.58339511838
30	19	18	176.51581629999
30	20	19	190.45333000669
30	21	20	204.38708014563
30	22	21	218.32807736073
30	23	22	232.26776169788
30	24	23	246.17936944868
30	25	24	260.13193060057
30	26	25	274.07121033055
30	27	26	288.00202344118
30	28	27	301.93764701921
30	29	28	315.88616724125
30	30	29	329.8234573653
30	31	30	343.76532721977
30	32	31	357.7025773545
30	33	32	371.63793034825
30	34	33	385.545624386
30	35	34	399.48043471431
30	36	35	413.42871779877
30	37	36	427.36742560066
30	38	37	441.30155354497
30	39	38	455.21497125884
30	40	39	469.14666474415
30	41	40	483.08411223145
30	42	41	497.04353042188
30	43	42	510.97481728087
30	44	43	524.89949838708
30	45	44	538.83557819283
30	46	45	552.7584347209
30	47	46	566.690561694
30	48	47	580.62526245321
30	49	48	594.56497076883
30	50	49	608.48777121938
30	51	50	622.40945264805
30	52	51	636.35247558821
30	53	52	650.3153498511
30	54	53	664.26038928179
30	55	54	678.18883455039
30	56	55	692.12779952806
30	57	56	706.06374043055
31	5	4	629.8
31	6	5	629.8
31	7	6	629.8
31	8	7	629.8
31	9	8	629.8
31	10	9	629.8
31	11	10	629.8
31	12	11	629.8
31	13	12	629.8
31	14	13	629.8
31	15	14	629.8
31	16	15	629.8
31	17	16	629.8
31	18	17	629.8
31	19	18	629.8
31	20	19	629.8
31	21	20	629.8
31	22	21	629.8
31	23	22	629.8
31	24	23	629.8
31	25	24	629.8
31	26	25	629.8
31	27	26	629.8
31	28	27	629.8
31	29	28	629.8
31	30	29	629.8
31	31	30	629.8
31	32	31	629.8
31	33	32	629.8
31	34	33	629.8
31	35	34	629.8
31	36	35	629.8
31	37	36	629.8
31	38	37	629.8
31	39	38	629.8
31	40	39	629.8
31	41	40	629.8
31	42	41	629.8
31	43	42	629.8
31	44	43	629.8
31	45	44	629.8
31	46	45	629.8
31	47	46	629.8
31	48	47	629.8
31	49	48	629.8
31	50	49	629.8
31	51	50	629.8
31	52	51	629.8
31	53	52	629.8
31	54	53	629.8
31	55	54	629.8
31	56	55	629.8
31	57	56	629.8
32	5	4	1219.8363112306
32	6	5	1219.8363112306
32	7	6	1216.7987347025
32	8	7	1211.9114777073
32	9	8	1205.1175601152
32	10	9	1196.3855670784
32	11	10	1185.7821001145
32	12	11	1174.3659886125
32	13	12	1162.9827074845
32	14	13	1151.5898962808
32	15	14	1140.2097490608
32	16	15	1128.8072619503
32	17	16	1117.4020995782
32	18	17	1106.0065637758
32	19	18	1094.6040801496
32	20	19	1083.1956742716
32	21	20	1071.7987896784
32	22	21	1060.3959266564
32	23	22	1048.9922318192
32	24	23	1037.6196159028
32	25	24	1026.2208432979
32	26	25	1014.8181283954
32	27	26	1003.4032080914
32	28	27	992.01453505941
32	29	28	980.60306614939
32	30	29	969.20550517897
32	31	30	957.80983513481
32	32	31	946.39779025877
32	33	32	935.00625131189
32	34	33	923.60718662971
32	35	34	912.21057884698
32	36	35	900.80474614685
32	37	36	889.40808270995
32	38	37	878.00140532445
32	39	38	866.61289038213
32	40	39	855.23363243118
32	41	40	843.83028029454
32	42	41	832.42990245004
32	43	42	821.03857240576
32	44	43	809.63282992846
32	45	44	798.21443088599
32	46	45	786.80042393231
32	47	46	775.40531419283
32	48	47	764.0002138892
32	49	48	752.58571852595
32	50	49	741.16862461933
32	51	50	729.75077284332
32	52	51	718.36902037002
32	53	52	706.94503739078
32	54	53	695.54929529481
32	55	54	684.14095395062
32	56	55	672.74900788416
32	57	56	661.35965719916
33	5	4	620.2
33	6	5	620.2
33	7	6	620.2
33	8	7	620.2
33	9	8	620.2
33	10	9	620.2
33	11	10	620.2
33	12	11	620.2
33	13	12	620.2
33	14	13	620.2
33	15	14	620.2
33	16	15	620.2
33	17	16	620.2
33	18	17	620.2
33	19	18	620.2
33	20	19	620.2
33	21	20	620.2
33	22	21	620.2
33	23	22	620.2
33	24	23	620.2
33	25	24	620.2
33	26	25	620.2
33	27	26	620.2
33	28	27	620.2
33	29	28	620.2
33	30	29	620.2
33	31	30	620.2
33	32	31	620.2
33	33	32	620.2
33	34	33	620.2
33	35	34	620.2
33	36	35	620.2
33	37	36	620.2
33	38	37	620.2
33	39	38	620.2
33	40	39	620.2
33	41	40	620.2
33	42	41	620.2
33	43	42	620.2
33	44	43	620.2
33	45	44	620.2
33	46	45	620.2
33	47	46	620.2
33	48	47	620.2
33	49	48	620.2
33	50	49	620.2
33	51	50	620.2
33	52	51	620.2
33	53	52	620.2
33	54	53	620.2
33	55	54	620.2
33	56	55	620.2
33	57	56	620.2
34	5	4	629.8
34	6	5	629.8
34	7	6	629.8
34	8	7	629.8
34	9	8	629.8
34	10	9	629.8
34	11	10	629.8
34	12	11	629.8
34	13	12	629.8
34	14	13	629.8
34	15	14	629.8
34	16	15	629.8
34	17	16	629.8
34	18	17	629.8
34	19	18	629.8
34	20	19	629.8
34	21	20	629.8
34	22	21	629.8
34	23	22	629.8
34	24	23	629.8
34	25	24	629.8
34	26	25	629.8
34	27	26	629.8
34	28	27	629.8
34	29	28	629.8
34	30	29	629.8
34	31	30	629.8
34	32	31	629.8
34	33	32	629.8
34	34	33	629.8
34	35	34	629.8
34	36	35	629.8
34	37	36	629.8
34	38	37	629.8
34	39	38	629.8
34	40	39	629.8
34	41	40	629.8
34	42	41	629.8
34	43	42	629.8
34	44	43	629.8
34	45	44	629.8
34	46	45	629.8
34	47	46	629.8
34	48	47	629.8
34	49	48	626.6
34	50	49	626.6
34	51	50	626.6
34	52	51	626.6
34	53	52	626.6
34	54	53	626.6
34	55	54	626.6
34	56	55	626.6
34	57	56	626.6
35	5	4	1219.811381777
35	6	5	1219.811381777
35	7	6	1216.6119642753
35	8	7	1211.3141954819
35	9	8	1203.9357192898
35	10	9	1194.4963063022
35	11	10	1183.1367813495
35	12	11	1169.918719164
35	13	12	1155.976308155
35	14	13	1142.0270960081
35	15	14	1128.0962960474
35	16	15	1114.1711598154
35	17	16	1100.2199786262
35	18	17	1086.2836428612
35	19	18	1072.3332195735
35	20	19	1058.4086492896
35	21	20	1044.4622983057
35	22	21	1030.5301803168
35	23	22	1016.6044124086
35	24	23	1002.653106028
35	25	24	988.71548745261
35	26	25	974.79020732633
35	27	26	960.85463838125
35	28	27	946.93047825504
35	29	28	932.9839256258
35	30	29	919.05382531486
35	31	30	905.10224102413
35	32	31	891.15451992665
35	33	32	877.23385784411
35	34	33	863.29727647952
35	35	34	849.3411289169
35	36	35	835.41654305315
35	37	36	821.48812137494
35	38	37	807.56734401028
35	39	38	793.65026400022
35	40	39	779.7149577023
35	41	40	765.7665776815
35	42	41	751.82980717312
35	43	42	737.87803176447
35	44	43	723.93158072449
35	45	44	709.98233440847
35	46	45	696.04566204104
35	47	46	682.11389924948
35	48	47	669.01334161498
35	49	48	658.32764766181
35	50	49	647.22262410735
35	51	50	639.93197803512
35	52	51	637.13714508132
35	53	52	637.10100070574
35	54	53	637.10100070574
35	55	54	637.10100070574
35	56	55	637.10100070574
35	57	56	637.10100070574
36	5	4	620.2
36	6	5	620.2
36	7	6	620.2
36	8	7	620.2
36	9	8	620.2
36	10	9	620.2
36	11	10	620.2
36	12	11	620.2
36	13	12	620.2
36	14	13	620.2
36	15	14	620.2
36	16	15	620.2
36	17	16	620.2
36	18	17	620.2
36	19	18	620.2
36	20	19	620.2
36	21	20	620.2
36	22	21	620.2
36	23	22	620.2
36	24	23	620.2
36	25	24	620.2
36	26	25	620.2
36	27	26	620.2
36	28	27	620.2
36	29	28	620.2
36	30	29	620.2
36	31	30	620.2
36	32	31	620.2
36	33	32	620.2
36	34	33	620.2
36	35	34	620.2
36	36	35	620.2
36	37	36	620.2
36	38	37	620.2
36	39	38	620.2
36	40	39	620.2
36	41	40	620.2
36	42	41	620.2
36	43	42	620.2
36	44	43	620.2
36	45	44	620.2
36	46	45	620.2
36	47	46	620.2
36	48	47	620.2
36	49	48	623.4
36	50	49	623.4
36	51	50	623.4
36	52	51	623.4
36	53	52	623.4
36	54	53	623.4
36	55	54	623.4
36	56	55	623.4
36	57	56	623.4
37	5	4	30.17299382833
37	6	5	30.17299382833
37	7	6	33.329768575267
37	8	7	38.441294689794
37	9	8	45.438719002387
37	10	9	54.314671960212
37	11	10	65.213550791841
37	12	11	78.160177526579
37	13	12	92.097400036947
37	14	13	106.02070633345
37	15	14	119.93652446137
37	16	15	133.8913815845
37	17	16	147.82412647608
37	18	17	161.76759822909
37	19	18	175.68577863382
37	20	19	189.63081067091
37	21	20	203.5343783511
37	22	21	217.47002868121
37	23	22	231.39345192698
37	24	23	245.31905598488
37	25	24	259.24547476753
37	26	25	273.17755927418
37	27	26	287.12160625253
37	28	27	301.0346286063
37	29	28	314.98241001602
37	30	29	328.91576356316
37	31	30	342.84127437972
37	32	31	356.77162953157
37	33	32	370.71348469114
37	34	33	384.6489103705
37	35	34	398.58963340455
37	36	35	412.51703807576
37	37	36	426.46836883105
37	38	37	440.39057713516
37	39	38	454.32912878277
37	40	39	468.27547642949
37	41	40	482.21032476162
37	42	41	496.15995054626
37	43	42	510.09739135196
37	44	43	524.03389698294
37	45	44	537.97906983681
37	46	45	551.92381703525
37	47	46	565.87146484431
37	48	47	579.26490506541
37	49	48	589.97398733799
37	50	49	601.2116256408
37	51	50	609.19969605325
37	52	51	612.71152369541
37	53	52	612.89899989228
37	54	53	612.89899989228
37	55	54	612.89899989228
37	56	55	612.89899989228
37	57	56	612.89899989228
38	5	4	326.6
38	6	5	326.6
38	7	6	326.6
38	8	7	326.6
38	9	8	326.6
38	10	9	326.6
38	11	10	326.6
38	12	11	326.6
38	13	12	326.6
38	14	13	326.6
38	15	14	326.6
38	16	15	326.6
38	17	16	326.6
38	18	17	326.6
38	19	18	326.6
38	20	19	326.6
38	21	20	326.6
38	22	21	326.6
38	23	22	326.6
38	24	23	326.6
38	25	24	326.6
38	26	25	326.6
38	27	26	326.6
38	28	27	326.6
38	29	28	326.6
38	30	29	326.6
38	31	30	326.6
38	32	31	326.6
38	33	32	326.6
38	34	33	326.6
38	35	34	326.6867316527
38	36	35	326.78010016147
38	37	36	327.13438033729
38	38	37	327.69241916389
38	39	38	328.64402241535
38	40	39	329.95162491636
38	41	40	331.3004725502
38	42	41	332.64264323829
38	43	42	333.99839098407
38	44	43	335.35114485819
38	45	44	336.70442516992
38	46	45	338.06221054847
38	47	46	339.41470971187
38	48	47	340.76335705709
38	49	48	342.12733897451
38	50	49	343.48972688912
38	51	50	344.84426979252
38	52	51	346.1944711396
38	53	52	347.55571100462
38	54	53	348.90098824096
38	55	54	350.24167464435
38	56	55	351.59796413707
38	57	56	352.95446088944
39	5	4	674.09240716368
39	6	5	674.09240716368
39	7	6	672.75625790557
39	8	7	671.40577171471
39	9	8	670.04587166293
39	10	9	668.68607409421
39	11	10	667.32992921599
39	12	11	665.97383472637
39	13	12	664.62095765638
39	14	13	663.27242272145
39	15	14	661.92012097974
39	16	15	660.56038366194
39	17	16	659.21801674004
39	18	17	657.86624054685
39	19	18	656.51086056074
39	20	19	655.15093508373
39	21	20	653.79635814301
39	22	21	652.44075885912
39	23	22	651.09009528883
39	24	23	649.74462667458
39	25	24	648.38680791795
39	26	25	647.02455448641
39	27	26	645.68567981273
39	28	27	644.32707339085
39	29	28	642.95888540182
39	30	29	641.61225056821
39	31	30	640.26460594913
39	32	31	638.90875047804
39	33	32	637.54514964515
39	34	33	636.19390396168
39	35	34	634.8401086239
39	36	35	633.48380818076
39	37	36	632.19595684562
39	38	37	630.99273041143
39	39	38	630.10281710148
39	40	39	629.8
39	41	40	629.8
39	42	41	629.8
39	43	42	629.8
39	44	43	629.8
39	45	44	629.8
39	46	45	629.8
39	47	46	629.8
39	48	47	629.8
39	49	48	629.8
39	50	49	629.8
39	51	50	629.8
39	52	51	629.8
39	53	52	629.8
39	54	53	629.8
39	55	54	629.8
39	56	55	629.8
39	57	56	629.8
40	5	4	323.4
40	6	5	323.4
40	7	6	323.4
40	8	7	323.4
40	9	8	323.4
40	10	9	323.4
40	11	10	323.4
40	12	11	323.4
40	13	12	323.4
40	14	13	323.4
40	15	14	323.4
40	16	15	323.4
40	17	16	323.4
40	18	17	323.4
40	19	18	323.4
40	20	19	323.4
40	21	20	323.4
40	22	21	323.4
40	23	22	323.4
40	24	23	323.4
40	25	24	323.4
40	26	25	323.4
40	27	26	323.4
40	28	27	323.4
40	29	28	323.4
40	30	29	323.4
40	31	30	323.4
40	32	31	323.4
40	33	32	323.4
40	34	33	323.4
40	35	34	323.4
40	36	35	323.4
40	37	36	323.4
40	38	37	323.4
40	39	38	323.4
40	40	39	323.4
40	41	40	323.4
40	42	41	323.4
40	43	42	323.4
40	44	43	323.4
40	45	44	323.4
40	46	45	323.4
40	47	46	323.4
40	48	47	323.4
40	49	48	323.4
40	50	49	323.4
40	51	50	323.4
40	52	51	323.4
40	53	52	323.4
40	54	53	323.4
40	55	54	323.4
40	56	55	323.4
40	57	56	323.4
41	5	4	565.89132112168
41	6	5	565.89132112168
41	7	6	567.22359030941
41	8	7	568.56138109484
41	9	8	569.91434369142
41	10	9	571.25979033762
41	11	10	572.61152588803
41	12	11	573.96631280508
41	13	12	575.31760480684
41	14	13	576.65233163117
41	15	14	578.01408456498
41	16	15	579.37378597693
41	17	16	580.73176259451
41	18	17	582.09506328567
41	19	18	583.45351819679
41	20	19	584.8174705427
41	21	20	586.1681286933
41	22	21	587.51569360511
41	23	22	588.86995241115
41	24	23	590.23452126231
41	25	24	591.58218498819
41	26	25	592.93087923957
41	27	26	594.29194795663
41	28	27	595.64052542859
41	29	28	596.99637296697
41	30	29	598.35228666525
41	31	30	599.71003960026
41	32	31	601.06581240458
41	33	32	602.41931577948
41	34	33	603.77525008316
41	35	34	605.12561084576
41	36	35	606.47968168733
41	37	36	607.82925990389
41	38	37	609.18325405456
41	39	38	610.54727335654
41	40	39	611.9017468466
41	41	40	613.25356579427
41	42	41	614.61661961459
41	43	42	615.96083449254
41	44	43	617.30584873874
41	45	44	618.65375667728
41	46	45	620.01276681723
41	47	46	621.35850998141
41	48	47	622.71652540256
41	49	48	624.08387572398
41	50	49	625.43902754062
41	51	50	626.7959892798
41	52	51	628.16028251967
41	53	52	629.51565856424
41	54	53	630.86965870148
41	55	54	632.21868763491
41	56	55	633.57676852171
41	57	56	634.93274150105
42	6	5	4.0343184021562
42	7	6	6.1515808550901
42	8	7	8.02666266033
42	9	8	9.9329730336721
42	10	9	12.047042262515
42	11	10	13.954321084484
42	12	11	13.894932774075
42	13	12	13.966579635034
42	14	13	13.886481790342
42	15	14	13.985294696975
42	16	15	13.883387996971
42	17	16	13.977842478703
42	18	17	13.919632596727
42	19	18	13.967714466674
42	20	19	13.983986625078
42	21	20	13.954444247452
42	22	21	13.918716909497
42	23	22	13.893560658998
42	24	23	13.934117956783
42	25	24	13.904218412621
42	26	25	13.936213392464
42	27	26	13.922544125866
42	28	27	13.950397087871
42	29	28	13.975786172533
42	30	29	13.895556590741
42	31	30	13.994787745033
42	32	31	13.878217092671
42	33	32	13.933376729579
42	34	33	13.946421637775
42	35	34	13.9809392601
42	36	35	13.910307569667
42	37	36	13.894015154475
42	38	37	13.899704755219
42	39	38	13.948321362126
42	40	39	13.939507739528
42	41	40	13.985313160627
42	42	41	13.880023013635
42	43	42	13.987071215771
42	44	43	13.995952588711
42	45	44	13.895738140589
42	46	45	13.94027000525
42	47	46	13.922600778663
42	48	47	13.932602817069
42	49	48	13.97266409588
42	50	49	13.939697268561
42	51	50	13.871770061636
42	52	51	13.937907864987
42	53	52	13.933375986258
42	54	53	13.957400561674
42	55	54	13.932317441197
42	56	55	13.880905688726
42	57	56	13.941014129918
43	6	5	3.8463931358306
43	7	6	5.7172672040857
43	8	7	7.6276636081518
43	9	8	9.5082898218258
43	10	9	11.434535273217
43	11	10	11.419460756393
43	12	11	11.344115880556
43	13	12	11.368315805787
43	14	13	11.441636107651
43	15	14	11.447039936586
43	16	15	11.41793112676
43	17	16	11.382401357832
43	18	17	11.35192503003
43	19	18	11.412364711231
43	20	19	11.414249143683
43	21	20	11.423908370538
43	22	21	11.346524651585
43	23	22	11.410003539089
43	24	23	11.420026320327
43	25	24	11.347368422873
43	26	25	11.367424553657
43	27	26	11.461531591595
43	28	27	11.464527472489
43	29	28	11.397418303195
43	30	29	11.41493596458
43	31	30	11.424714069214
43	32	31	11.345584424465
43	33	32	11.465437425571
43	34	33	11.367084896575
43	35	34	11.401968391627
43	36	35	11.37530363761
43	37	36	11.446886684458
43	38	37	11.434902031828
43	39	38	11.357776459365
43	40	39	11.366287112069
43	41	40	11.401403294516
43	42	41	11.403615298195
43	43	42	11.377717860537
43	44	43	11.40333561688
43	45	44	11.460240150502
43	46	45	11.410287729971
43	47	46	11.40067490009
43	48	47	11.403590209881
43	49	48	11.429357826704
43	50	49	11.461184611144
43	51	50	11.422705430275
43	52	51	11.466413239577
43	53	52	11.42902406534
43	54	53	11.420068531875
43	55	54	11.361580627059
43	56	55	11.380815878986
43	57	56	11.372064540815
44	6	5	4.0874999947765
44	7	6	6.2640309302591
44	8	7	8.270336856026
44	9	8	10.364360634113
44	10	9	12.20614736701
44	11	10	13.911864193922
44	12	11	13.954185937664
44	13	12	13.94459724535
44	14	13	13.908923275329
44	15	14	13.995584532632
44	16	15	13.922695118731
44	17	16	13.930780770776
44	18	17	13.990542566341
44	19	18	13.957280713504
44	20	19	13.985984033293
44	21	20	13.998712195423
44	22	21	13.915357587303
44	23	22	13.967740026775
44	24	23	13.984973162969
44	25	24	13.965636192213
44	26	25	13.958680461706
44	27	26	13.905095961648
44	28	27	13.976824779136
44	29	28	13.975586985259
44	30	29	13.992203896996
44	31	30	13.914221390183
44	32	31	13.890924643576
44	33	32	13.944906660418
44	34	33	13.994555037238
44	35	34	13.943131675392
44	36	35	13.940175482363
44	37	36	13.953175638104
44	38	37	13.894443755813
44	39	38	13.882934232224
44	40	39	13.937267350776
44	41	40	13.975001734302
44	42	41	13.977383821106
44	43	42	13.908683347802
44	44	43	13.907338871572
44	45	44	13.969151883442
44	46	45	13.991784618439
44	47	46	11.748727531282
44	48	47	10.986664658799
44	49	48	9.7638516944137
44	50	49	5.2698329537961
44	51	50	0.76983295379611
44	52	51	0
44	53	52	0
44	54	53	0
44	55	54	0
44	56	55	0
44	57	56	0
45	6	5	4.0074752869557
45	7	6	6.0028018545693
45	8	7	7.8783533522657
45	9	8	9.7684061708099
45	10	9	11.809244422634
45	11	10	13.827833691154
45	12	11	13.882057316797
45	13	12	13.966255847123
45	14	13	13.870675970279
45	15	14	13.998616521899
45	16	15	13.984782006699
45	17	16	13.972047870909
45	18	17	13.898271791083
45	19	18	13.936571764362
45	20	19	13.889017195865
45	21	20	13.977938448975
45	22	21	13.893230236557
45	23	22	13.932244424256
45	24	23	13.940523981571
45	25	24	13.942894474829
45	26	25	13.962021793458
45	27	26	13.917297129247
45	28	27	13.935764221579
45	29	28	13.965151289338
45	30	29	13.882011379623
45	31	30	13.947871130863
45	32	31	13.9783056225
45	33	32	13.918709345618
45	34	33	13.877821169526
45	35	34	13.881554147012
45	36	35	13.999155704742
45	37	36	13.874928114058
45	38	37	13.901003011663
45	39	38	13.942203868104
45	40	39	13.977262253291
45	41	40	13.984741087109
45	42	41	13.928459818035
45	43	42	13.877649692409
45	44	43	13.955840956687
45	45	44	13.909191946664
45	46	45	13.997694088328
45	47	46	12.169750000272
45	48	47	10.540047399717
45	49	48	10.444103649127
45	50	49	5.9757149213423
45	51	50	1.5226299136193
45	52	51	0
45	53	52	0
45	54	53	0
45	55	54	0
45	56	55	0
45	57	56	0
46	6	5	1.3372606383599
46	7	6	1.3454546724697
46	8	7	1.3489423171367
46	9	8	1.3846494382133
46	10	9	1.3686696333214
46	11	10	1.362838007157
46	12	11	1.3384271527842
46	13	12	1.3383361595994
46	14	13	1.3497250353815
46	15	14	1.3243488821303
46	16	15	1.3309183784459
46	17	16	1.3898675860707
46	18	17	1.3349977040949
46	19	18	1.3227399517635
46	20	19	1.3813347787628
46	21	20	1.3497813808421
46	22	21	1.3706771698025
46	23	22	1.3362950337734
46	24	23	1.3248511059392
46	25	24	1.3822981734637
46	26	25	1.3468059499328
46	27	26	1.3357991373192
46	28	27	1.3741059060624
46	29	28	1.3378529023917
46	30	29	1.3549800482937
46	31	30	1.3274130598684
46	32	31	1.3671463495633
46	33	32	1.3778062649379
46	34	33	1.3545823587573
46	35	34	1.3544749316823
46	36	35	1.3302603046832
46	37	36	1.3353926026713
46	38	37	1.3395380793447
46	39	38	1.3632713580431
46	40	39	1.3238576142729
46	41	40	1.3809557171158
46	42	41	1.3355810108711
46	43	42	1.3582149701512
46	44	43	1.3523317361624
46	45	44	1.3752244513498
46	46	45	1.3380696943811
46	47	46	1.3404341031453
46	48	47	1.3763973689158
46	49	48	1.3826158301714
46	50	49	1.3534163436537
46	51	50	1.3472136738893
46	52	51	1.3655427336901
46	53	52	1.3602318641978
46	54	53	1.3610283413305
46	55	54	1.3877610003694
46	56	55	1.3885598433681
46	57	56	1.3826761668414
47	6	5	1.3266578466533
47	7	6	1.361680933861
47	8	7	1.3510747183604
47	9	8	1.3616782377369
47	10	9	1.3448824087867
47	11	10	1.3839465584061
47	12	11	1.3632070131424
47	13	12	1.3237217015137
47	14	13	1.3698171121778
47	15	14	1.3857144813299
47	16	15	1.3323963892085
47	17	16	1.3790809233981
47	18	17	1.3503510254668
47	19	18	1.3569457118416
47	20	19	1.336283837311
47	21	20	1.3612323591711
47	22	21	1.3310527508338
47	23	22	1.3817464150679
47	24	23	1.3245165208768
47	25	24	1.3211230350587
47	26	25	1.3598517181969
47	27	26	1.347871604832
47	28	27	1.3263545958386
47	29	28	1.3432321752596
47	30	29	1.3813132934226
47	31	30	1.3259916960825
47	32	31	1.3788647401331
47	33	32	1.3745112247828
47	34	33	1.3287099412483
47	35	34	1.3758167778384
47	36	35	1.3467735217788
47	37	36	1.3484000466607
47	38	37	1.3766850494709
47	39	38	1.3289754203245
47	40	39	1.3759914449017
47	41	40	1.3662126417666
47	42	41	1.3276840257322
47	43	42	1.3626474650776
47	44	43	1.3525217547033
47	45	44	1.3420431689926
47	46	45	1.3305688947192
47	47	46	1.3565758921468
47	48	47	1.3588476747643
47	49	48	1.3546671859251
47	50	49	1.3338634472702
47	51	50	1.3462572843401
47	52	51	1.3822516038533
47	53	52	1.3239916532362
47	54	53	1.3217137848967
47	55	54	1.3238441390021
47	56	55	1.3315111467717
47	57	56	1.3727892602531
48	7	6	2.1172624529339
48	8	7	1.8750818052399
48	9	8	1.9063103733421
48	10	9	2.1140692288429
48	11	10	1.9072788219686
48	12	11	-0.059388310408686
48	13	12	0.071646860959008
48	14	13	-0.080097844691482
48	15	14	0.098812906632666
48	16	15	-0.10190670000389
48	17	16	0.0944544817321
48	18	17	-0.058209881975781
48	19	18	0.048081869946328
48	20	19	0.016272158403881
48	21	20	-0.029542377626058
48	22	21	-0.035727337955032
48	23	22	-0.025156250498258
48	24	23	0.040557297784835
48	25	24	-0.029899544161744
48	26	25	0.031994979842565
48	27	26	-0.013669266598299
48	28	27	0.027852962005419
48	29	28	0.02538908466231
48	30	29	-0.080229581792373
48	31	30	0.099231154292356
48	32	31	-0.11657065236242
48	33	32	0.055159636908211
48	34	33	0.013044908195734
48	35	34	0.034517622324637
48	36	35	-0.070631690432784
48	37	36	-0.016292415191419
48	38	37	0.005689600743354
48	39	38	0.048616606907453
48	40	39	-0.0088136225985362
48	41	40	0.045805421099066
48	42	41	-0.10529014699161
48	43	42	0.10704820213607
48	44	43	0.0088813729397952
48	45	44	-0.10021444812184
48	46	45	0.044531864661257
48	47	46	-0.017669226587749
48	48	47	0.010002038406673
48	49	48	0.040061278811191
48	50	49	-0.03296682731947
48	51	50	-0.067927206924651
48	52	51	0.066137803350575
48	53	52	-0.0045318787288853
48	54	53	0.024024575415533
48	55	54	-0.02508312047692
[...]
270	42	41	160.3258229527
270	43	42	174.08561939343
270	44	43	187.83153030221
270	45	44	201.56790439747
270	46	45	215.32553591532
270	47	46	229.0769504146
270	48	47	242.82179759277
270	49	48	256.54270519578
270	50	49	270.26744720019
270	51	50	282.79613616274
270	52	51	295.72083009153
270	53	52	306.18109483908
270	54	53	313.56337156959
270	55	54	318.40037654578
270	56	55	321.71344358986
270	57	56	325.50938239739
271	29	28	629.8
271	30	29	629.8
271	31	30	629.8
271	32	31	629.8
271	33	32	629.8
271	34	33	629.8
271	35	34	629.8
271	36	35	629.8
271	37	36	629.8
271	38	37	629.8
271	39	38	629.8
271	40	39	629.8
271	41	40	629.8
271	42	41	629.8
271	43	42	629.8
271	44	43	629.8
271	45	44	629.8
271	46	45	629.8
271	47	46	629.8
271	48	47	629.8
271	49	48	629.8
271	50	49	629.8
271	51	50	629.8
271	52	51	629.8
271	53	52	629.8
271	54	53	629.8
271	55	54	629.8
271	56	55	626.6
271	57	56	626.6
272	29	28	1219.8311012009
272	30	29	1219.8311012009
272	31	30	1216.6629057591
272	32	31	1211.6562270414
272	33	32	1204.7861456059
272	34	33	1195.9699984043
272	35	34	1185.2078904595
272	36	35	1172.547271686
272	37	36	1158.6290044192
272	38	37	1144.7022093117
272	39	38	1130.7733489776
272	40	39	1116.8441396019
272	41	40	1102.9255602264
272	42	41	1088.9902626884
272	43	42	1075.0650835757
272	44	43	1061.1456300409
272	45	44	1047.2033054198
272	46	45	1033.2569501757
272	47	46	1019.3055009013
272	48	47	1005.3596944455
272	49	48	991.42618696388
272	50	49	977.5095722312
272	51	50	963.57027275898
272	52	51	949.61551124729
272	53	52	935.68049667998
272	54	53	921.76678301054
272	55	54	907.83302343833
272	56	55	893.91028578767
272	57	56	879.96746437368
273	29	28	620.2
273	30	29	620.2
273	31	30	620.2
273	32	31	620.2
273	33	32	620.2
273	34	33	620.2
273	35	34	620.2
273	36	35	620.2
273	37	36	620.2
273	38	37	620.2
273	39	38	620.2
273	40	39	620.2
273	41	40	620.2
273	42	41	620.2
273	43	42	620.2
273	44	43	620.2
273	45	44	620.2
273	46	45	620.2
273	47	46	620.2
273	48	47	620.2
273	49	48	620.2
273	50	49	620.2
273	51	50	620.2
273	52	51	620.2
273	53	52	620.2
273	54	53	620.2
273	55	54	620.2
273	56	55	620.2
273	57	56	620.2
274	29	28	629.8
274	30	29	629.8
274	31	30	629.8
274	32	31	629.8
274	33	32	629.8
274	34	33	629.8
274	35	34	629.8
274	36	35	629.8
274	37	36	629.8
274	38	37	629.8
274	39	38	629.8
274	40	39	629.8
274	41	40	629.8
274	42	41	629.8
274	43	42	629.8
274	44	43	629.8
274	45	44	629.8
274	46	45	629.8
274	47	46	629.8
274	48	47	629.8
274	49	48	629.8
274	50	49	629.8
274	51	50	629.8
274	52	51	629.8
274	53	52	629.8
274	54	53	629.8
274	55	54	629.8
274	56	55	629.8
274	57	56	629.8
275	29	28	1219.8067354698
275	30	29	1219.8067354698
275	31	30	1216.7380142331
275	32	31	1211.9339346632
275	33	32	1205.2005416449
275	34	33	1196.3179812991
275	35	34	1186.1446747185
275	36	35	1175.956355156
275	37	36	1165.7429928603
275	38	37	1155.5383064027
275	39	38	1145.3128404283
275	40	39	1135.1292869583
275	41	40	1124.9393877023
275	42	41	1114.7220452195
275	43	42	1104.5271148294
275	44	43	1094.3101326589
275	45	44	1084.0956288157
275	46	45	1073.8921238092
275	47	46	1063.6745363617
275	48	47	1053.461900614
275	49	48	1043.2515242391
275	50	49	1033.0302673996
275	51	50	1022.838288807
275	52	51	1012.6338778429
275	53	52	1002.4079388124
275	54	53	992.23288433578
275	55	54	982.02492537145
275	56	55	971.82177316307
275	57	56	961.64461156394
276	29	28	620.2
276	30	29	620.2
276	31	30	620.2
276	32	31	620.2
276	33	32	620.2
276	34	33	620.2
276	35	34	620.2
276	36	35	620.2
276	37	36	620.2
276	38	37	620.2
276	39	38	620.2
276	40	39	620.2
276	41	40	620.2
276	42	41	620.2
276	43	42	620.2
276	44	43	620.2
276	45	44	620.2
276	46	45	620.2
276	47	46	620.2
276	48	47	620.2
276	49	48	620.2
276	50	49	620.2
276	51	50	620.2
276	52	51	620.2
276	53	52	620.2
276	54	53	620.2
276	55	54	620.2
276	56	55	620.2
276	57	56	620.2
277	29	28	30.175083503794
277	30	29	30.175083503794
277	31	30	33.436683377928
277	32	31	38.664199722328
277	33	32	45.833564631893
277	34	33	54.972346024592
277	35	34	66.203622986159
277	36	35	79.437584896613
277	37	36	93.360413524136
277	38	37	107.2749925463
277	39	38	121.20456890848
277	40	39	135.15188719871
277	41	40	149.09056446155
277	42	41	163.02804887906
277	43	42	176.97162330653
277	44	43	190.92532004017
277	45	44	204.86350954079
277	46	45	218.80193540512
277	47	46	232.72785284405
277	48	47	246.6452529609
277	49	48	260.58347058351
277	50	49	274.51503153426
277	51	50	288.44160490386
277	52	51	302.37698039302
277	53	52	316.31745298686
277	54	53	330.26496064914
277	55	54	344.2067085561
277	56	55	358.13231392853
277	57	56	372.06004388663
278	29	28	326.6
278	30	29	326.6
278	31	30	326.6
278	32	31	326.6
278	33	32	326.6
278	34	33	326.6
278	35	34	326.6
278	36	35	326.6
278	37	36	326.6
278	38	37	326.6
278	39	38	326.6
278	40	39	326.6
278	41	40	326.6
278	42	41	326.6
278	43	42	326.6
278	44	43	326.6
278	45	44	326.6
278	46	45	326.6
278	47	46	326.6
278	48	47	326.6
278	49	48	326.6
278	50	49	326.6
278	51	50	326.6
278	52	51	326.6
278	53	52	326.6
278	54	53	326.6
278	55	54	326.6
278	56	55	326.6
278	57	56	326.6
279	29	28	674.21435542881
279	30	29	674.21435542881
279	31	30	673.0274418181
279	32	31	671.74647829301
279	33	32	670.42310868725
279	34	33	669.08742186996
279	35	34	667.74737118563
279	36	35	666.39829963212
279	37	36	665.04984453589
279	38	37	663.69409106169
279	39	38	662.33653903284
279	40	39	660.98589459114
279	41	40	659.63397724646
279	42	41	658.28817125468
279	43	42	656.93001931258
279	44	43	655.58615388021
279	45	44	654.22756861452
279	46	45	652.87970392682
279	47	46	651.53053584942
279	48	47	650.17636999303
279	49	48	648.81707618958
279	50	49	647.45198143469
279	51	50	646.09177815401
279	52	51	644.74764823609
279	53	52	643.3945904809
279	54	53	642.0367834565
279	55	54	640.68932528154
279	56	55	639.39245811668
279	57	56	638.3171493368
280	29	28	323.4
280	30	29	323.4
280	31	30	323.4
280	32	31	323.4
280	33	32	323.4
280	34	33	323.4
280	35	34	323.4
280	36	35	323.4
280	37	36	323.4
280	38	37	323.4
280	39	38	323.4
280	40	39	323.4
280	41	40	323.4
280	42	41	323.4
280	43	42	323.4
280	44	43	323.4
280	45	44	323.4
280	46	45	323.4
280	47	46	323.4
280	48	47	323.4
280	49	48	323.4
280	50	49	323.4
280	51	50	323.4
280	52	51	323.4
280	53	52	323.4
280	54	53	323.4
280	55	54	323.4
280	56	55	323.4
280	57	56	323.4
281	29	28	565.7644931179
281	30	29	565.7644931179
281	31	30	566.93751610574
281	32	31	568.20854225043
281	33	32	569.51911621901
281	34	33	570.86017112421
281	35	34	572.19596576912
281	36	35	573.539700426
281	37	36	574.88612893245
281	38	37	576.23575534701
281	39	38	577.58237548784
281	40	39	578.93705338564
281	41	40	580.2858563123
281	42	41	581.64414093443
281	43	42	583.00416253776
281	44	43	584.36184668467
281	45	44	585.71009630525
281	46	45	587.06303857129
281	47	46	588.4147347539
281	48	47	589.76930873603
281	49	48	591.11960569674
281	50	49	592.46559442415
281	51	50	593.81231306103
281	52	51	595.1593246546
281	53	52	596.5030799633
281	54	53	597.85590788027
281	55	54	599.19984959436
281	56	55	600.55603889409
281	57	56	601.90624332629
282	30	29	3.923560914811
282	31	30	5.8926865279295
282	32	31	7.9030107186425
282	33	32	9.8758727005024
282	34	33	11.727407155213
282	35	34	13.721472443567
282	36	35	13.733570233747
282	37	36	13.781072420169
282	38	37	13.786922044867
282	39	38	13.781542570671
282	40	39	13.763083086892
282	41	40	13.682873775811
282	42	41	13.758925790836
282	43	42	13.758102113615
282	44	43	13.750936973668
282	45	44	13.766637818614
282	46	45	13.744478081489
282	47	46	13.766259419844
282	48	47	13.700384523716
282	49	48	13.610265517231
282	50	49	12.53169582541
282	51	50	12.169219850056
282	52	51	8.9970133421485
282	53	52	6.1368970247032
282	54	53	3.922224563943
282	55	54	3.3260410047417
282	56	55	3.5162399009444
282	57	56	2.5364157350515
283	30	29	4.0258689955461
283	31	30	5.921355366125
283	32	31	7.7096180933739
283	33	32	9.6855822874934
283	34	33	11.625435699942
283	35	34	13.560650304654
283	36	35	13.877720182033
283	37	36	13.915000375698
283	38	37	13.900260928692
283	39	38	13.877682801588
283	40	39	13.994930412387
283	41	40	13.984641470029
283	42	41	13.909486689449
283	43	42	13.962094489164
283	44	43	13.929500454469
283	45	44	13.952708566552
283	46	45	13.960326220482
283	47	46	13.898511546294
283	48	47	13.884687804892
283	49	48	13.907182786663
283	50	49	13.942775215008
283	51	50	13.951174983769
283	52	51	13.917246461066
283	53	52	13.926866263237
283	54	53	13.929049783805
283	55	54	13.988911934141
283	56	55	13.985915696661
283	57	56	13.921457679747
284	30	29	3.8600049445256
284	31	30	5.6052127956985
284	32	31	7.7118299667504
284	33	32	9.7683723470512
284	34	33	10.199142181264
284	35	34	10.220053169832
284	36	35	10.236757728448
284	37	36	10.214227314552
284	38	37	10.236362910054
284	39	38	10.146387962902
284	40	39	10.193837476464
284	41	40	10.217224800254
284	42	41	10.22479095212
284	43	42	10.145351468823
284	44	43	10.255545284965
284	45	44	10.214256913916
284	46	45	10.254820476023
284	47	46	10.209768906813
284	48	47	10.256188627447
284	49	48	10.209930330329
284	50	49	10.204462332784
284	51	50	10.185380613872
284	52	51	10.153538310884
284	53	52	10.149520192768
284	54	53	10.190779336386
284	55	54	10.190664241016
284	56	55	10.138805678201
284	57	56	10.264636682903
285	30	29	4.1653317373862
285	31	30	6.0469074882484
285	32	31	8.0410826835862
285	33	32	10.052135373725
285	34	33	12.142316024987
285	35	34	13.916922157812
285	36	35	13.935378440509
285	37	36	13.872138704218
285	38	37	13.999765601889
285	39	38	13.927921875755
285	40	39	13.998854267225
285	41	40	13.917211674617
285	42	41	13.99723016286
285	43	42	13.965936589027
285	44	43	13.977175455217
285	45	44	13.963054630226
285	46	45	13.954408127819
285	47	46	13.958225362413
285	48	47	13.893286542604
285	49	48	13.929257852251
285	50	49	13.911270815709
285	51	50	13.944838903721
285	52	51	13.911689754629
285	53	52	13.998904139358
285	54	53	13.912119286677
285	55	54	13.885562774844
285	56	55	13.912036236597
285	57	56	13.956550007178
286	30	29	1.2330939944918
286	31	30	1.3209797052074
286	32	31	1.3399470790717
286	33	32	1.3568004762455
286	34	33	1.3578788797174
286	35	34	1.3709419430768
286	36	35	1.3249285072627
286	37	36	1.3756783757143
286	38	37	1.3817324082974
286	39	38	1.3560206867292
286	40	39	1.3429214018096
286	41	40	1.3497714198082
286	42	41	1.3672627009693
286	43	42	1.3649394523485
286	44	43	1.3557774707725
286	45	44	1.33799262166
286	46	45	1.355040002638
286	47	46	1.3248800100502
286	48	47	1.3227009553827
286	49	48	1.3811327059822
286	50	49	1.347244436174
286	51	50	1.3200247185455
286	52	51	1.3840202829676
286	53	52	1.3733881480095
286	54	53	1.3836774048208
286	55	54	1.1938987426207
286	56	55	0.95271026064399
286	57	56	0.63709958523208
287	30	29	1.1942393576487
287	31	30	1.2735903722209
287	32	31	1.3133927504434
287	33	32	1.3771003320167
287	34	33	1.3165697476299
287	35	34	1.3170947703064
287	36	35	1.3369778003864
287	37	36	1.3404504254942
287	38	37	1.3300144319248
287	39	38	1.3712080544736
287	40	39	1.3233899511829
287	41	40	1.3738906190224
287	42	41	1.3539997741878
287	43	42	1.3289870556849
287	44	43	1.3662015270705
287	45	44	1.3292770988363
287	46	45	1.3337619956782
287	47	46	1.3298511759483
287	48	47	1.3348096312178
287	49	48	1.3668631108268
287	50	49	1.3579910656346
287	51	50	1.3610496503692
287	52	51	1.3466183613538
287	53	52	1.3383691437451
287	54	53	1.334285454239
287	55	54	1.3436352827267
287	56	55	1.3583250857141
287	57	56	1.3194513895626
288	31	30	1.9691256131185
288	32	31	2.010324190713
288	33	32	1.9728619818599
288	34	33	1.8515344547108
288	35	34	1.9940652883542
288	36	35	0.012097790179833
288	37	36	0.04750218642177
288	38	37	0.0058496246975857
288	39	38	-0.0053794741956512
288	40	39	-0.018459483778571
288	41	40	-0.080209311081562
288	42	41	0.076052015025635
288	43	42	-0.00082367722177956
288	44	43	-0.0071651399461548
288	45	44	0.015700844945387
288	46	45	-0.02215973712504
288	47	46	0.021781338355504
288	48	47	-0.065874896128662
288	49	48	-0.090119006484223
288	50	49	-1.0785696918215
288	51	50	-0.3624759753541
288	52	51	-3.1722065079073
288	53	52	-2.8601163174452
288	54	53	-2.2146724607603
288	55	54	-0.59618355920129
288	56	55	0.19019889620266
288	57	56	-0.97982416589283
289	31	30	4.2095944468397
289	32	31	5.3657546053588
289	33	32	6.3709733232241
289	34	33	7.057728842855
289	35	34	8.6047055672557
289	36	35	2.0518377524825
289	37	36	2.1743457811862
289	38	37	2.0366061392863
289	39	38	1.9987599933845
289	40	39	1.9535379688385
289	41	40	1.7422147956062
289	42	41	2.2665285248138
289	43	42	2.0115335494701
289	44	43	1.9897981988029
289	45	44	2.0672160545555
289	46	45	1.9394910749683
289	47	46	2.087349556247
289	48	47	1.7909600123207
289	49	48	1.7038638067931
289	50	49	0.973
289	51	50	0.973
289	52	51	0.973
289	53	52	0.973
289	54	53	0.973
289	55	54	0.973
289	56	55	1.4448167191951
289	57	56	0.973
290	31	30	1.8954863705789
290	32	31	1.7882627272489
290	33	32	1.9759641941194
290	34	33	1.9398534124484
290	35	34	1.9352146047121
290	36	35	0.31706987737891
290	37	36	0.037280193665064
290	38	37	-0.014739447005558
290	39	38	-0.022578127104788
290	40	39	0.11724761079997
290	41	40	-0.010288942358457
290	42	41	-0.075154780580196
290	43	42	0.052607799714897
290	44	43	-0.032594034695068
290	45	44	0.023208112083376
290	46	45	0.0076176539296284
290	47	46	-0.061814674187916
290	48	47	-0.013823741402012
290	49	48	0.022494981770869
290	50	49	0.0355924283457
290	51	50	0.0083997687604267
290	52	51	-0.033928522702771
290	53	52	0.0096198021713647
290	54	53	0.0021835205680691
290	55	54	0.059862150335684
290	56	55	-0.0029962374805486
290	57	56	-0.064458016913848
291	31	30	4.1197730918015
291	32	31	4.8468684859048
291	33	32	6.2735144800556
291	34	33	7.2509009678203
291	35	34	8.3190367884852
291	36	35	3.0868145182995
291	37	36	2.1551778562548
291	38	37	1.9792804339681
291	39	38	1.9508477913724
291	40	39	2.4337780048502
291	41	40	2.0025966015106
291	42	41	1.777663604937
291	43	42	2.2119838054413
291	44	43	1.9222180630732
291	45	44	2.1120458243602
291	46	45	2.0604139825538
291	47	46	1.8214281776853
291	48	47	1.9808156792715
291	49	48	2.1047566575495
291	50	49	2.152589422545
291	51	50	2.0620914322105
291	52	51	1.9165888838582
291	53	52	2.0636555168387
291	54	53	2.0389204396067
291	55	54	2.2395258752532
291	56	55	2.0273048120438
291	57	56	1.8145550894284
292	31	30	1.7452078511729
292	32	31	2.1066171710519
292	33	32	2.0565423803008
292	34	33	0.43076983421239
292	35	34	0.020910988568794
292	36	35	0.016704558616039
292	37	36	-0.022530413896312
292	38	37	0.022135595502332
292	39	38	-0.089974947152658
292	40	39	0.047449513562023
292	41	40	0.02338732379023
292	42	41	0.0075661518657579
292	43	42	-0.079439483296593
292	44	43	0.11019381614169
292	45	44	-0.041288371048868
292	46	45	0.040563562107273
292	47	46	-0.045051569209901
292	48	47	0.046419720633422
292	49	48	-0.046258297117893
292	50	49	-0.0054679975449101
292	51	50	-0.019081718912348
292	52	51	-0.031842302987352
292	53	52	-0.0040181181160737
292	54	53	0.041259143617935
292	55	54	-0.00011509536998311
292	56	55	-0.051858562815468
292	57	56	0.12583100470249
293	31	30	3.7541890135032
293	32	31	5.4396428630951
293	33	32	6.5087997347754
293	34	33	2.7588444452038
293	35	34	1.7531323588809
293	36	35	1.7441291949311
293	37	36	1.6457168096331
293	38	37	1.7574952633183
293	39	38	1.4759433670582
293	40	39	1.8161762715478
293	41	40	1.7589974220386
293	42	41	1.7206379850035
293	43	42	1.501645794772
293	44	43	1.9767245408026
293	45	44	1.5995436715768
293	46	45	1.804564175197
293	47	46	1.5899825655492
293	48	47	1.8191583382513
293	49	48	1.5870239968445
293	50	49	1.6869778775083
293	51	50	1.6521155947409
293	52	51	1.6185881414374
293	53	52	1.6863692977443
293	54	53	1.8007023214149
293	55	54	1.6990792465859
293	56	55	1.5686614050964
293	57	56	2.0163527044513
294	31	30	1.8815757508622
294	32	31	1.9941751953377
294	33	32	2.011052690139
294	34	33	2.0901806512615
294	35	34	1.7746061328253
294	36	35	0.018456282697153
294	37	36	-0.06323973629158
294	38	37	0.12762689767172
294	39	38	-0.071843726134393
294	40	39	0.070932391469832
294	41	40	-0.081642592607531
294	42	41	0.080018488243223
294	43	42	-0.031293573833537
294	44	43	0.011238866189961
294	45	44	-0.014120824991259
294	46	45	-0.0086465024063376
294	47	46	0.0038172345934449
294	48	47	-0.064938819808885
294	49	48	0.035971309647429
294	50	49	-0.017987036542037
294	51	50	0.033568088011817
294	52	51	-0.033149149091914
294	53	52	0.087214384728576
294	54	53	-0.086784852680283
294	55	54	-0.026556511833332
294	56	55	0.026473461752756
294	57	56	0.044513770581689
295	31	30	4.164157509704
295	32	31	5.4104461958188
295	33	32	6.5606514048708
295	34	33	7.9776149528906
295	35	34	7.9823443644945
295	36	35	2.0942203791432
295	37	36	1.8143754209047
295	38	37	2.4694295504566
295	39	38	1.7903227777054
295	40	39	2.2780364497096
295	41	40	1.7565503415362
295	42	41	2.308492569894
295	43	42	1.9300310227321
295	44	43	2.0743669221223
295	45	44	1.9875459318476
295	46	45	2.0051015615181
295	47	46	2.0474109737671
295	48	47	1.8105138306764
295	49	48	2.1523657313963
295	50	49	1.969474539914
295	51	50	2.1460146626805
295	52	51	1.9186811268703
295	53	52	2.3329735617918
295	54	53	1.7388905551098
295	55	54	1.9382925177548
295	56	55	2.1186163907352
295	57	56	2.1841221240165
296	31	30	0.087885710715647
296	32	31	0.018967373864262
296	33	32	0.016853397173866
296	34	33	0.0010784034718685
296	35	34	0.013063063359406
296	36	35	-0.046013435814091
296	37	36	0.050749868451618
296	38	37	0.0060540325830225
296	39	38	-0.025711721568167
296	40	39	-0.013099284919595
296	41	40	0.0068500179985496
296	42	41	0.01749128116119
296	43	42	-0.0023232486208322
296	44	43	-0.0091619815760156
296	45	44	-0.017784849112495
296	46	45	0.017047380978009
296	47	46	-0.030159992587774
296	48	47	-0.0021790546674949
296	49	48	0.058431750599453
296	50	49	-0.03388826980819
296	51	50	-0.027219717628464
296	52	51	0.063995564422093
296	53	52	-0.010632134958158
296	54	53	0.010289256811296
296	55	54	-0.18977866220006
296	56	55	-0.24118848197672
296	57	56	-0.31561067541191
297	31	30	1.2019159557773
297	32	31	1.1809863757602
297	33	32	1.1811936678395
297	34	33	1.1760882728442
297	35	34	1.1806882653931
297	36	35	1.1594369608556
297	37	36	1.1934287641455
297	38	37	1.1789144429793
297	39	38	1.167242163187
297	40	39	1.1707667528287
297	41	40	1.1775684205496
297	42	41	1.1819564279147
297	43	42	1.1753153617379
297	44	43	1.1726393148986
297	45	44	1.169031204582
297	46	45	1.1811640433847
297	47	46	1.1644970778694
297	48	47	1.1733262501878
297	49	48	1.1963184008326
297	50	49	1.1642139256513
297	51	50	1.1652311741025
297	52	51	1.1983556941691
297	53	52	1.1729724561022
297	54	53	1.1804244423212
297	55	54	0.973
297	56	55	0.973
297	57	56	0.973
298	31	30	0.079351014572201
298	32	31	0.039802378222561
298	33	32	0.063707581573262
298	34	33	-0.060530584386811
298	35	34	0.00052502267649435
298	36	35	0.019883030080006
298	37	36	0.0034726251078536
298	38	37	-0.010435993569437
298	39	38	0.041193622548832
298	40	39	-0.047818103290745
298	41	40	0.050500667839544
298	42	41	-0.019890844834619
298	43	42	-0.025012718502885
298	44	43	0.037214471385569
298	45	44	-0.036924428234226
298	46	45	0.0044848968419613
298	47	46	-0.0039108197299398
298	48	47	0.004958455269473
298	49	48	0.032053479609091
298	50	49	-0.0088720451922897
298	51	50	0.0030585847346645
298	52	51	-0.014431289015463
298	53	52	-0.0082492176086622
298	54	53	-0.0040836895061136
298	55	54	0.0093498284877407
298	56	55	0.014689802987423
298	57	56	-0.0388736961515
299	31	30	1.195984462151
299	32	31	1.186165913522
299	33	32	1.1978159185424
299	34	33	1.1545161915575
299	35	34	1.1739143730009
299	36	35	1.1811231256729
299	37	36	1.1760076524522
299	38	37	1.171032151926
299	39	38	1.1899981357059
299	40	39	1.1588034795014
299	41	40	1.1932372085657
299	42	41	1.1690556019382
299	43	42	1.1663159527754
299	44	43	1.1883941647443
299	45	44	1.1625123529876
299	46	45	1.1760014722719
299	47	46	1.1731158869692
299	48	47	1.1762059980467
299	49	48	1.1867322524756
299	50	49	1.1728372296677
299	51	50	1.1768932040492
299	52	51	1.1705029939676
299	53	52	1.1721236300248
299	54	53	1.1732722092961
299	55	54	1.1780686781826
299	56	55	1.1805659198766
299	57	56	1.1615011781664

